
 ===================================================
  XFOIL Version 6.99
  Copyright (C) 2000   Mark Drela, Harold Youngren

  This software comes with ABSOLUTELY NO WARRANTY,
    subject to the GNU General Public License.

  Caveat computor
 ===================================================

 File  xfoil.def  not found

   QUIT    Exit program

  .OPER    Direct operating point(s)
  .MDES    Complex mapping design routine
  .QDES    Surface speed design routine
  .GDES    Geometry design routine

   SAVE f  Write airfoil to labeled coordinate file
   PSAV f  Write airfoil to plain coordinate file
   ISAV f  Write airfoil to ISES coordinate file
   MSAV f  Write airfoil to MSES coordinate file
   REVE    Reverse written-airfoil node ordering

   LOAD f  Read buffer airfoil from coordinate file
   NACA i  Set NACA 4,5-digit airfoil and buffer airfoil
   INTE    Set buffer airfoil by interpolating two airfoils
   NORM    Buffer airfoil normalization toggle
   XYCM rr Change CM reference location, currently  0.25000 0.00000

   BEND    Display structural properties of current airfoil

   PCOP    Set current-airfoil panel nodes directly from buffer airfoil points
   PANE    Set current-airfoil panel nodes ( 160 ) based on curvature
  .PPAR    Show/change paneling

  .PLOP    Plotting options

   WDEF f  Write  current-settings file
   RDEF f  Reread current-settings file
   NAME s  Specify new airfoil name
   NINC    Increment name version number

   Z       Zoom    | (available in all menus)
   U       Unzoom  | 

 XFOIL   c>   Max thickness =     0.150043  at x =   0.300
 Max camber    =     0.020000  at x =   0.402

 Buffer airfoil set using 331 points

 Blunt trailing edge.  Gap =  0.00315

 Paneling parameters used...
   Number of panel nodes       160
   Panel bunching parameter    1.000
   TE/LE panel density ratio   0.150
   Refined-area/LE panel density ratio    0.200
   Top    side refined area x/c limits  1.000 1.000
   Bottom side refined area x/c limits  1.000 1.000

 XFOIL   c>  
 Blunt trailing edge.  Gap =  0.00315

 Paneling parameters used...
   Number of panel nodes       160
   Panel bunching parameter    1.000
   TE/LE panel density ratio   0.150
   Refined-area/LE panel density ratio    0.200
   Top    side refined area x/c limits  1.000 1.000
   Bottom side refined area x/c limits  1.000 1.000

 XFOIL   c>  
    Present paneling parameters...
  N  i   Number of panel nodes       160
  P  r   Panel bunching parameter    1.000
  T  r   TE/LE panel density ratio   0.150
  R  r   Refined area/LE  panel density ratio   0.200
  XT rr  Top    side refined area x/c limits    1.000 1.000
  XB rr  Bottom side refined area x/c limits    1.000 1.000
  Z oom
  U nzoom

Change what ? (<cr> if nothing else)   c>  
Enter number of panel nodes   i>  
Change what ? (<cr> if nothing else)   c>  
 Blunt trailing edge.  Gap =  0.00315

 Maximum panel corner angle =  2.878   at  i,x,y  = 160   0.0012  -0.0073

    Present paneling parameters...
  N  i   Number of panel nodes       300
  P  r   Panel bunching parameter    1.000
  T  r   TE/LE panel density ratio   0.150
  R  r   Refined area/LE  panel density ratio   0.200
  XT rr  Top    side refined area x/c limits    1.000 1.000
  XB rr  Bottom side refined area x/c limits    1.000 1.000
  Z oom
  U nzoom

Change what ? (<cr> if nothing else)   c>  
 XFOIL   c>  
.OPERi   c>   Current iteration limit:          10

Enter new iteration limit   i>  
.OPERi   c>  
 XFOIL   c>  
 XFOIL   c>  
 XFOIL   c>  
.OPERi   c>  
.OPERi   c>  
.OPERi   c>  
 M  =    0.0000
 Re =     70000

.OPERv   c>  
 Polar  1 newly created for accumulation
 Airfoil archived with polar: NACA 2415                                       

Enter  polar save filename  OR  <return> for no file   s>  
 Polar save file will NOT be written

Enter  polar dump filename  OR  <return> for no file   s>  
 Polar dump file will NOT be written

 Polar accumulation enabled

.OPERva   c>   Calculating unit vorticity distributions ...
 Calculating wake trajectory ...
 Array size (IWX) too small.  Last wake point index reduced.
 Calculating source influence matrix ...

 Solving BL system ...

 Initializing BL ...
    side            1  ...
 MRCHUE: Inverse mode at  95     Hk =   3.810
 MRCHUE: Inverse mode at  96     Hk =   3.979
 MRCHUE: Inverse mode at  97     Hk =   4.146
 MRCHUE: Inverse mode at  98     Hk =   4.310
 MRCHUE: Inverse mode at  99     Hk =   4.472
 MRCHUE: Inverse mode at 100     Hk =   4.632
 MRCHUE: Inverse mode at 101     Hk =   4.791
 MRCHUE: Inverse mode at 102     Hk =   4.947
 MRCHUE: Inverse mode at 103     Hk =   5.102
 MRCHUE: Inverse mode at 104     Hk =   5.256
 MRCHUE: Inverse mode at 105     Hk =   5.407
 MRCHUE: Inverse mode at 106     Hk =   5.558
 MRCHUE: Inverse mode at 107     Hk =   5.707
 MRCHUE: Inverse mode at 108     Hk =   5.855
 MRCHUE: Inverse mode at 109     Hk =   6.002
 MRCHUE: Inverse mode at 110     Hk =   6.147
 MRCHUE: Inverse mode at 111     Hk =   6.292
 MRCHUE: Inverse mode at 112     Hk =   6.435
 MRCHUE: Inverse mode at 113     Hk =   6.578
 MRCHUE: Inverse mode at 114     Hk =   6.719
 MRCHUE: Inverse mode at 115     Hk =   6.860
 MRCHUE: Inverse mode at 116     Hk =   6.999
 MRCHUE: Inverse mode at 117     Hk =   7.138
 MRCHUE: Inverse mode at 118     Hk =   7.276
 MRCHUE: Inverse mode at 119     Hk =   7.413
 MRCHUE: Inverse mode at 120     Hk =   7.549
 MRCHUE: Inverse mode at 121     Hk =   7.685
 MRCHUE: Inverse mode at 122     Hk =   7.820
 MRCHUE: Inverse mode at 123     Hk =   7.954
 MRCHUE: Inverse mode at 124     Hk =   8.087
 MRCHUE: Inverse mode at 125     Hk =   8.220
 MRCHUE: Inverse mode at 126     Hk =   8.352
 MRCHUE: Inverse mode at 127     Hk =   8.483
 MRCHUE: Inverse mode at 128     Hk =   8.614
 MRCHUE: Inverse mode at 129     Hk =   8.744
 MRCHUE: Inverse mode at 130     Hk =   8.873
 MRCHUE: Inverse mode at 131     Hk =   9.002
 MRCHUE: Inverse mode at 132     Hk =   9.130
 MRCHUE: Inverse mode at 133     Hk =   9.258
 MRCHUE: Inverse mode at 134     Hk =   9.384
 MRCHUE: Inverse mode at 135     Hk =   9.511
 MRCHUE: Inverse mode at 136     Hk =   9.636
 MRCHUE: Inverse mode at 137     Hk =   9.748
 MRCHUE: Inverse mode at 138     Hk =   9.132
 MRCHUE: Inverse mode at 139     Hk =   8.616
 MRCHUE: Inverse mode at 140     Hk =   8.170
 MRCHUE: Inverse mode at 141     Hk =   7.778
 MRCHUE: Inverse mode at 142     Hk =   7.428
 MRCHUE: Inverse mode at 143     Hk =   7.113
 MRCHUE: Inverse mode at 144     Hk =   6.827
 MRCHUE: Inverse mode at 145     Hk =   6.567
 MRCHUE: Inverse mode at 146     Hk =   6.329
 MRCHUE: Inverse mode at 147     Hk =   6.112
 MRCHUE: Inverse mode at 148     Hk =   5.914
 MRCHUE: Inverse mode at 149     Hk =   5.733
 MRCHUE: Inverse mode at 150     Hk =   5.569
 MRCHUE: Inverse mode at 151     Hk =   5.421
 MRCHUE: Inverse mode at 152     Hk =   5.286
 MRCHUE: Inverse mode at 153     Hk =   5.164
 MRCHUE: Inverse mode at 154     Hk =   5.054
 MRCHUE: Inverse mode at 155     Hk =   4.987
    side            2  ...
 MRCHUE: Inverse mode at 105     Hk =   3.866
 MRCHUE: Inverse mode at 106     Hk =   3.999
 MRCHUE: Inverse mode at 107     Hk =   4.130
 MRCHUE: Inverse mode at 108     Hk =   4.260
 MRCHUE: Inverse mode at 109     Hk =   4.388
 MRCHUE: Inverse mode at 110     Hk =   4.515
 MRCHUE: Inverse mode at 111     Hk =   4.641
 MRCHUE: Inverse mode at 112     Hk =   4.766
 MRCHUE: Inverse mode at 113     Hk =   4.890
 MRCHUE: Inverse mode at 114     Hk =   5.013
 MRCHUE: Inverse mode at 115     Hk =   5.135
 MRCHUE: Inverse mode at 116     Hk =   5.256
 MRCHUE: Inverse mode at 117     Hk =   5.376
 MRCHUE: Inverse mode at 118     Hk =   5.496
 MRCHUE: Inverse mode at 119     Hk =   5.614
 MRCHUE: Inverse mode at 120     Hk =   5.732
 MRCHUE: Inverse mode at 121     Hk =   5.848
 MRCHUE: Inverse mode at 122     Hk =   5.964
 MRCHUE: Inverse mode at 123     Hk =   6.080
 MRCHUE: Inverse mode at 124     Hk =   6.194
 MRCHUE: Inverse mode at 125     Hk =   6.308
 MRCHUE: Inverse mode at 126     Hk =   6.421
 MRCHUE: Inverse mode at 127     Hk =   6.533
 MRCHUE: Inverse mode at 128     Hk =   6.645
 MRCHUE: Inverse mode at 129     Hk =   6.755
 MRCHUE: Inverse mode at 130     Hk =   6.865
 MRCHUE: Inverse mode at 131     Hk =   6.973
 MRCHUE: Inverse mode at 132     Hk =   7.081
 MRCHUE: Inverse mode at 133     Hk =   7.187
 MRCHUE: Inverse mode at 134     Hk =   7.292
 MRCHUE: Inverse mode at 135     Hk =   7.395
 MRCHUE: Inverse mode at 136     Hk =   7.495
 MRCHUE: Inverse mode at 137     Hk =   7.594
 MRCHUE: Inverse mode at 138     Hk =   7.689
 MRCHUE: Inverse mode at 139     Hk =   7.781
 MRCHUE: Inverse mode at 140     Hk =   7.868
 MRCHUE: Inverse mode at 141     Hk =   7.952
 MRCHUE: Inverse mode at 142     Hk =   8.031
 MRCHUE: Inverse mode at 143     Hk =   8.105
 MRCHUE: Inverse mode at 144     Hk =   8.174
 MRCHUE: Inverse mode at 145     Hk =   8.238
 MRCHUE: Inverse mode at 146     Hk =   8.298
 MRCHUE: Inverse mode at 147     Hk =   8.335
 MRCHUE: Inverse mode at 149     Hk =   5.163
 MRCHUE: Inverse mode at 150     Hk =   4.656
 MRCHUE: Inverse mode at 151     Hk =   4.271
 MRCHUE: Inverse mode at 152     Hk =   3.966
 MRCHUE: Inverse mode at 153     Hk =   3.719
 MRCHUE: Inverse mode at 154     Hk =   3.513
 MRCHUE: Inverse mode at 155     Hk =   3.337
 MRCHUE: Inverse mode at 156     Hk =   3.186
 MRCHUE: Inverse mode at 157     Hk =   3.053
 MRCHUE: Convergence failed at 158  side 2    Res =  0.5273E-01

 MRCHDU: Convergence failed at 158  side 2    Res =  0.5250E-01
 Side 1  free  transition at x/c =  0.8567  137
 Side 2 forced transition at x/c =  1.0000  147

   1   rms: 0.4991E+00   max: 0.3597E+01   D at  158  2   RLX: 0.300
       a =  0.250      CL =  0.4381
      Cm = -0.0973     CD =  0.01083   =>   CDf =  0.00806    CDp =  0.00276

 Side 1  free  transition at x/c =  0.8928  142
 Side 2 forced transition at x/c =  1.0000  146

   2   rms: 0.2813E+00   max: 0.2056E+01   D at  157  2   RLX: 0.730
       a =  0.250      CL =  0.4116
      Cm = -0.0922     CD =  0.01514   =>   CDf =  0.00815    CDp =  0.00699

 Side 1  free  transition at x/c =  0.8829  141
 Side 2 forced transition at x/c =  1.0000  146
 idif Ue xi dudx           3  0.19800709      3.69560719E-03   53.579041    
 Uenew xinew           4  0.13749552      2.56621838E-03

   3   rms: 0.2435E+00   max: 0.1300E+01   T at  141  1
       a =  0.250      CL =  0.1970
      Cm = -0.0543     CD =  0.02696   =>   CDf =  0.00827    CDp =  0.01869

 Side 1  free  transition at x/c =  0.8274  132
 Side 2 forced transition at x/c =  1.0000  149

   4   rms: 0.1009E+01   max: -.4364E+01   T at  132  1   RLX: 0.115
       a =  0.250      CL =  0.3268
      Cm = -0.0740     CD =  0.02971   =>   CDf =  0.00793    CDp =  0.02178

 Side 1  free  transition at x/c =  0.8542  137
 Side 2 forced transition at x/c =  1.0000  147

   5   rms: 0.5075E-01   max: -.3954E+00   D at  139  1
       a =  0.250      CL =  0.3747
      Cm = -0.0822     CD =  0.02475   =>   CDf =  0.00803    CDp =  0.01673

 Side 1  free  transition at x/c =  0.8579  139
 Side 2 forced transition at x/c =  1.0000  146

   6   rms: 0.1785E-01   max: 0.1210E+00   D at  142  1
       a =  0.250      CL =  0.3689
      Cm = -0.0813     CD =  0.02501   =>   CDf =  0.00800    CDp =  0.01701

 Side 1  free  transition at x/c =  0.8552  138
 Side 2 forced transition at x/c =  1.0000  146
 idif Ue xi dudx           2  0.13693734      2.43079662E-03   56.334343    
 Uenew xinew           3  7.33139515E-02  1.30140781E-03

   7   rms: 0.8792E-01   max: 0.4481E+00   T at  138  1
       a =  0.250      CL =  0.2790
      Cm = -0.0677     CD =  0.02744   =>   CDf =  0.00804    CDp =  0.01939

 Side 1  free  transition at x/c =  0.8341  134
 Side 2 forced transition at x/c =  1.0000  148

   8   rms: 0.3885E+00   max: -.1613E+01   T at  134  1   RLX: 0.310
       a =  0.250      CL =  0.4124
      Cm = -0.0873     CD =  0.02662   =>   CDf =  0.00790    CDp =  0.01872

 Side 1  free  transition at x/c =  0.8659  139
 Side 2 forced transition at x/c =  1.0000  146

   9   rms: 0.4639E+00   max: -.2408E+01   T at  139  1   RLX: 0.208
       a =  0.250      CL =  0.5146
      Cm = -0.1048     CD =  0.01991   =>   CDf =  0.00799    CDp =  0.01192

 MRCHDU: Convergence failed at 145  side 1    Res =  0.5009E+01
 MRCHDU: Convergence failed at 146  side 1    Res =  0.4377E+01
 MRCHDU: Convergence failed at 147  side 1    Res =  0.7957E+01
 MRCHDU: Convergence failed at 148  side 1    Res =  0.2243E+02
 MRCHDU: Convergence failed at 149  side 1    Res =  0.1291E+03
 MRCHDU: Convergence failed at 150  side 1    Res =  0.2412E+02
 MRCHDU: Convergence failed at 151  side 1    Res =  0.1602E+02
 MRCHDU: Convergence failed at 152  side 1    Res =  0.1285E+02
 MRCHDU: Convergence failed at 153  side 1    Res =  0.1198E+02
 MRCHDU: Convergence failed at 154  side 1    Res =  0.1120E+02
 MRCHDU: Convergence failed at 155  side 1    Res =  0.1075E+02
 MRCHDU: Convergence failed at 156  side 1    Res =  0.1095E+02
 MRCHDU: Convergence failed at 157  side 1    Res =  0.1146E+02
 Side 1  free  transition at x/c =  0.9061  145
 Side 2 forced transition at x/c =  1.0000  145
 idif Ue xi dudx           2  0.12662907      2.32791901E-03   54.395824    
 Uenew xinew           3  6.43715113E-02  1.18339062E-03

  10   rms: 0.3610E+00   max: 0.1915E+01   C at  145  1   RLX: 0.783
       a =  0.250      CL =  0.3719
      Cm = -0.0885     CD =  0.01865   =>   CDf =  0.00810    CDp =  0.01055

 Side 1  free  transition at x/c =  0.8519  137
 Side 2 forced transition at x/c =  1.0000  147

  11   rms: 0.4708E-01   max: -.4353E+00   D at  142  1
       a =  0.250      CL =  0.3304
      Cm = -0.0757     CD =  0.02607   =>   CDf =  0.00801    CDp =  0.01806

 Side 1  free  transition at x/c =  0.8446  136
 Side 2 forced transition at x/c =  1.0000  147

  12   rms: 0.1398E+00   max: -.6887E+00   T at  136  1   RLX: 0.726
       a =  0.250      CL =  0.4344
      Cm = -0.0907     CD =  0.02340   =>   CDf =  0.00793    CDp =  0.01547

 Side 1  free  transition at x/c =  0.8784  141
 Side 2 forced transition at x/c =  1.0000  146

  13   rms: 0.6483E-01   max: 0.4229E+00   D at  142  1
       a =  0.250      CL =  0.4293
      Cm = -0.0911     CD =  0.02352   =>   CDf =  0.00805    CDp =  0.01547

 Side 1  free  transition at x/c =  0.8710  140
 Side 2 forced transition at x/c =  1.0000  146
 idif Ue xi dudx           1  0.11011384      1.82580948E-03   60.309601    
 Uenew xinew           2  4.20008525E-02  6.96420670E-04

  14   rms: 0.1227E+00   max: 0.5518E+00   T at  140  1
       a =  0.250      CL =  0.3135
      Cm = -0.0726     CD =  0.02670   =>   CDf =  0.00805    CDp =  0.01865

 Side 1  free  transition at x/c =  0.8430  136
 Side 2 forced transition at x/c =  1.0000  147

  15   rms: 0.8147E-01   max: -.4113E+00   D at  138  1
       a =  0.250      CL =  0.3969
      Cm = -0.0856     CD =  0.02414   =>   CDf =  0.00793    CDp =  0.01620

 Side 1  free  transition at x/c =  0.8636  139
 Side 2 forced transition at x/c =  1.0000  146

  16   rms: 0.5207E-01   max: 0.2731E+00   D at  146  1
       a =  0.250      CL =  0.3712
      Cm = -0.0817     CD =  0.02501   =>   CDf =  0.00801    CDp =  0.01699

 Side 1  free  transition at x/c =  0.8559  138
 Side 2 forced transition at x/c =  1.0000  146
 idif Ue xi dudx           3  0.20542924      3.69918346E-03   55.533672    
 Uenew xinew           4  0.14271013      2.56979465E-03

  17   rms: 0.1687E+00   max: 0.8578E+00   T at  138  1
       a =  0.250      CL =  0.1963
      Cm = -0.0551     CD =  0.02941   =>   CDf =  0.00808    CDp =  0.02132

 Side 1  free  transition at x/c =  0.8206  132
 Side 2 forced transition at x/c =  1.0000  149

  18   rms: 0.1524E+00   max: -.5765E+00   T at  132  1   RLX: 0.867
       a =  0.250      CL =  0.3292
      Cm = -0.0749     CD =  0.02592   =>   CDf =  0.00790    CDp =  0.01802

 Side 1  free  transition at x/c =  0.8488  137
 Side 2 forced transition at x/c =  1.0000  147

  19   rms: 0.2397E-01   max: 0.1011E+00   D at  137  1
       a =  0.250      CL =  0.3514
      Cm = -0.0787     CD =  0.02528   =>   CDf =  0.00799    CDp =  0.01728

 Side 1  free  transition at x/c =  0.8502  137
 Side 2 forced transition at x/c =  1.0000  147

  20   rms: 0.2734E-02   max: -.1444E-01   D at  142  1
       a =  0.250      CL =  0.3522
      Cm = -0.0787     CD =  0.02528   =>   CDf =  0.00797    CDp =  0.01731

 Side 1  free  transition at x/c =  0.8508  137
 Side 2 forced transition at x/c =  1.0000  147

  21   rms: 0.1893E-03   max: -.7179E-03   D at  149  1
       a =  0.250      CL =  0.3524
      Cm = -0.0788     CD =  0.02529   =>   CDf =  0.00797    CDp =  0.01732

 Side 1  free  transition at x/c =  0.8508  137
 Side 2 forced transition at x/c =  1.0000  147

  22   rms: 0.4339E-05   max: -.1777E-04   D at  155  2
       a =  0.250      CL =  0.3524
      Cm = -0.0788     CD =  0.02529   =>   CDf =  0.00797    CDp =  0.01732
 plradd ia,ip,cpol            1         154  0.18373777    

 Point added to stored polar  1
 Save file unspecified or not available
 Dump file unspecified or not available

.OPERva   c>  
.OPERva   c>  
.OPERva   c>   Calculating wake trajectory ...
 Array size (IWX) too small.  Last wake point index reduced.
 Calculating source influence matrix ...

 Solving BL system ...

 Side 1  free  transition at x/c =  0.8508  137
 Side 2 forced transition at x/c =  1.0000  147

   1   rms: 0.4957E-01   max: -.6751E-01   D at  118  2
       a =  0.500      CL =  0.3908
      Cm = -0.0809     CD =  0.02477   =>   CDf =  0.00795    CDp =  0.01682

 Side 1  free  transition at x/c =  0.8400  137
 Side 2 forced transition at x/c =  1.0000  146

   2   rms: 0.1237E-01   max: -.9196E-01   D at  137  1
       a =  0.500      CL =  0.3786
      Cm = -0.0789     CD =  0.02509   =>   CDf =  0.00806    CDp =  0.01703

 Side 1  free  transition at x/c =  0.8369  136
 Side 2 forced transition at x/c =  1.0000  146

   3   rms: 0.1245E+01   max: -.6249E+01   T at  136  1   RLX: 0.080
       a =  0.500      CL =  0.4799
      Cm = -0.0934     CD =  0.02242   =>   CDf =  0.00802    CDp =  0.01440

 MRCHDU: Convergence failed at 144  side 1    Res =  0.8634E+01
 MRCHDU: Convergence failed at 145  side 1    Res =  0.2254E+01
 MRCHDU: Convergence failed at 146  side 1    Res =  0.1923E+01
 MRCHDU: Convergence failed at 147  side 1    Res =  0.2367E+01
 MRCHDU: Convergence failed at 148  side 1    Res =  0.3207E+01
 MRCHDU: Convergence failed at 149  side 1    Res =  0.4473E+01
 MRCHDU: Convergence failed at 150  side 1    Res =  0.6510E+01
 MRCHDU: Convergence failed at 151  side 1    Res =  0.1044E+02
 MRCHDU: Convergence failed at 152  side 1    Res =  0.1886E+02
 MRCHDU: Convergence failed at 153  side 1    Res =  0.5099E+02
 MRCHDU: Convergence failed at 154  side 1    Res =  0.2005E+03
 MRCHDU: Convergence failed at 155  side 1    Res =  0.4381E+02
 MRCHDU: Convergence failed at 156  side 1    Res =  0.2886E+02
 MRCHDU: Convergence failed at 157  side 1    Res =  0.2806E+02
 Side 1  free  transition at x/c =  0.8730  141
 Side 2 forced transition at x/c =  1.0000  145

   4   rms: 0.2084E+00   max: 0.1080E+01   D at  155  2
       a =  0.500      CL =  0.4185
      Cm = -0.0834     CD =  0.01877   =>   CDf =  0.00814    CDp =  0.01063

 MRCHDU: Convergence failed at 146  side 1    Res =  0.1448E+01
 MRCHDU: Convergence failed at 147  side 1    Res =  0.3273E+01
 MRCHDU: Convergence failed at 148  side 1    Res =  0.7715E+01
 MRCHDU: Convergence failed at 149  side 1    Res =  0.3067E+02
 MRCHDU: Convergence failed at 150  side 1    Res =  0.3100E+02
 MRCHDU: Convergence failed at 151  side 1    Res =  0.1778E+02
 MRCHDU: Convergence failed at 152  side 1    Res =  0.1529E+02
 MRCHDU: Convergence failed at 153  side 1    Res =  0.1533E+02
 MRCHDU: Convergence failed at 154  side 1    Res =  0.1696E+02
 MRCHDU: Convergence failed at 155  side 1    Res =  0.2018E+02
 MRCHDU: Convergence failed at 156  side 1    Res =  0.3028E+02
 MRCHDU: Convergence failed at 157  side 1    Res =  0.1098E+03
 Side 1  free  transition at x/c =  0.8677  141
 Side 2 forced transition at x/c =  1.0000  145
 idif Ue xi dudx           1  0.10389096      1.95622444E-03   53.107891    
 Uenew xinew           2  4.31074649E-02  8.11696053E-04

   5   rms: 0.1409E+00   max: 0.6766E+00   T at  154  1
       a =  0.500      CL =  0.3607
      Cm = -0.0739     CD =  0.02259   =>   CDf =  0.00817    CDp =  0.01442

 Side 1  free  transition at x/c =  0.8457  137
 Side 2 forced transition at x/c =  1.0000  146
 idif Ue xi dudx           3  0.23160288      4.21035290E-03   55.007950    
 Uenew xinew           4  0.16947752      3.08096409E-03

   6   rms: 0.4735E+00   max: 0.2289E+01   T at  137  1   RLX: 0.456
       a =  0.500      CL =  0.1385
      Cm = -0.0414     CD =  0.03140   =>   CDf =  0.00818    CDp =  0.02321

 Side 1  free  transition at x/c =  0.8057  130
 Side 2 forced transition at x/c =  1.0000  149

   7   rms: 0.2696E+00   max: 0.1293E+01   C at  149  2   RLX: 0.499
       a =  0.500      CL =  0.2784
      Cm = -0.0609     CD =  0.02854   =>   CDf =  0.00810    CDp =  0.02044

 Side 1  free  transition at x/c =  0.8329  135
 Side 2 forced transition at x/c =  1.0000  147

   8   rms: 0.1234E+00   max: 0.6150E+00   C at  147  2
       a =  0.500      CL =  0.4142
      Cm = -0.0846     CD =  0.02296   =>   CDf =  0.00814    CDp =  0.01481

 Side 1  free  transition at x/c =  0.8506  138
 Side 2 forced transition at x/c =  1.0000  146

   9   rms: 0.3887E-01   max: 0.1966E+00   D at  142  1
       a =  0.500      CL =  0.4047
      Cm = -0.0829     CD =  0.02440   =>   CDf =  0.00812    CDp =  0.01628

 Side 1  free  transition at x/c =  0.8437  137
 Side 2 forced transition at x/c =  1.0000  146

  10   rms: 0.6368E-01   max: 0.2971E+00   T at  137  1
       a =  0.500      CL =  0.3422
      Cm = -0.0735     CD =  0.02626   =>   CDf =  0.00806    CDp =  0.01820

 Side 1  free  transition at x/c =  0.8284  136
 Side 2 forced transition at x/c =  1.0000  146

  11   rms: 0.4947E-01   max: -.2241E+00   D at  136  1
       a =  0.500      CL =  0.3835
      Cm = -0.0796     CD =  0.02454   =>   CDf =  0.00802    CDp =  0.01652

 Side 1  free  transition at x/c =  0.8388  137
 Side 2 forced transition at x/c =  1.0000  146

  12   rms: 0.1697E-02   max: 0.1096E-01   D at  147  1
       a =  0.500      CL =  0.3844
      Cm = -0.0797     CD =  0.02488   =>   CDf =  0.00805    CDp =  0.01683

 Side 1  free  transition at x/c =  0.8384  137
 Side 2 forced transition at x/c =  1.0000  146

  13   rms: 0.1004E-03   max: -.5801E-03   D at  159  2
       a =  0.500      CL =  0.3845
      Cm = -0.0798     CD =  0.02488   =>   CDf =  0.00805    CDp =  0.01684

 Side 1  free  transition at x/c =  0.8385  137
 Side 2 forced transition at x/c =  1.0000  146

  14   rms: 0.2042E-05   max: -.2823E-04   D at    3  2
       a =  0.500      CL =  0.3845
      Cm = -0.0798     CD =  0.02488   =>   CDf =  0.00805    CDp =  0.01684
 plradd ia,ip,cpol            2         155  0.17583421    

 Point added to stored polar  1
 Save file unspecified or not available
 Dump file unspecified or not available

.OPERva   c>  
.OPERva   c>  
.OPERva   c>   Calculating wake trajectory ...
 Array size (IWX) too small.  Last wake point index reduced.
 Calculating source influence matrix ...

 Solving BL system ...

 Side 1  free  transition at x/c =  0.8385  137
 Side 2 forced transition at x/c =  1.0000  146

   1   rms: 0.5659E-01   max: -.6327E-01   D at  158  2
       a =  0.750      CL =  0.4343
      Cm = -0.0832     CD =  0.02401   =>   CDf =  0.00803    CDp =  0.01598

 Side 1  free  transition at x/c =  0.8312  137
 Side 2 forced transition at x/c =  1.0000  145

   2   rms: 0.4458E-01   max: 0.1999E+00   T at  137  1
       a =  0.750      CL =  0.3939
      Cm = -0.0771     CD =  0.02532   =>   CDf =  0.00813    CDp =  0.01719

 Side 1  free  transition at x/c =  0.8210  136
 Side 2 forced transition at x/c =  1.0000  145

   3   rms: 0.1640E-01   max: -.1362E+00   D at  136  1
       a =  0.750      CL =  0.4063
      Cm = -0.0790     CD =  0.02461   =>   CDf =  0.00811    CDp =  0.01650

 Side 1  free  transition at x/c =  0.8243  136
 Side 2 forced transition at x/c =  1.0000  145

   4   rms: 0.6174E-02   max: 0.2834E-01   D at  144  1
       a =  0.750      CL =  0.4014
      Cm = -0.0783     CD =  0.02490   =>   CDf =  0.00811    CDp =  0.01678

 Side 1  free  transition at x/c =  0.8228  136
 Side 2 forced transition at x/c =  1.0000  145

   5   rms: 0.8529E-03   max: -.4049E-02   D at  142  1
       a =  0.750      CL =  0.4020
      Cm = -0.0783     CD =  0.02484   =>   CDf =  0.00811    CDp =  0.01673

 Side 1  free  transition at x/c =  0.8230  136
 Side 2 forced transition at x/c =  1.0000  145

   6   rms: 0.4947E-04   max: 0.1260E-03   D at  145  2
       a =  0.750      CL =  0.4020
      Cm = -0.0784     CD =  0.02484   =>   CDf =  0.00811    CDp =  0.01674
 plradd ia,ip,cpol            3         156  0.16040629    

 Point added to stored polar  1
 Save file unspecified or not available
 Dump file unspecified or not available

.OPERva   c>  
.OPERva   c>  
.OPERva   c>   Calculating wake trajectory ...
 Array size (IWX) too small.  Last wake point index reduced.
 Calculating source influence matrix ...

 Solving BL system ...

 Side 1  free  transition at x/c =  0.8230  136
 Side 2 forced transition at x/c =  1.0000  145

   1   rms: 0.4135E-01   max: 0.2498E+00   T at  136  1
       a =  1.000      CL =  0.4277
      Cm = -0.0780     CD =  0.02467   =>   CDf =  0.00811    CDp =  0.01656

 Side 1  free  transition at x/c =  0.8100  135
 Side 2 forced transition at x/c =  1.0000  145

   2   rms: 0.7934E-02   max: -.1387E+00   D at  135  1
       a =  1.000      CL =  0.4306
      Cm = -0.0783     CD =  0.02450   =>   CDf =  0.00818    CDp =  0.01632

 Side 1  free  transition at x/c =  0.8107  135
 Side 2 forced transition at x/c =  1.0000  145

   3   rms: 0.1705E-02   max: 0.9188E-02   D at  142  1
       a =  1.000      CL =  0.4297
      Cm = -0.0782     CD =  0.02459   =>   CDf =  0.00817    CDp =  0.01642

 Side 1  free  transition at x/c =  0.8104  135
 Side 2 forced transition at x/c =  1.0000  145

   4   rms: 0.2855E-04   max: -.1304E-03   D at  139  1
       a =  1.000      CL =  0.4297
      Cm = -0.0782     CD =  0.02458   =>   CDf =  0.00817    CDp =  0.01641
 plradd ia,ip,cpol            4         156  0.15290555    

 Point added to stored polar  1
 Save file unspecified or not available
 Dump file unspecified or not available

.OPERva   c>  
.OPERva   c>  
.OPERva   c>   Calculating wake trajectory ...
 Array size (IWX) too small.  Last wake point index reduced.
 Calculating source influence matrix ...

 Solving BL system ...

 Side 1  free  transition at x/c =  0.8104  135
 Side 2 forced transition at x/c =  1.0000  145

   1   rms: 0.5231E-01   max: -.5392E-01   D at  156  2
       a =  1.250      CL =  0.4729
      Cm = -0.0802     CD =  0.02383   =>   CDf =  0.00815    CDp =  0.01568

 Side 1  free  transition at x/c =  0.8022  135
 Side 2 forced transition at x/c =  1.0000  144

   2   rms: 0.3308E-01   max: 0.1490E+00   T at  135  1
       a =  1.250      CL =  0.4429
      Cm = -0.0759     CD =  0.02496   =>   CDf =  0.00824    CDp =  0.01672

 Side 1  free  transition at x/c =  0.7948  134
 Side 2 forced transition at x/c =  1.0000  144

   3   rms: 0.1617E-01   max: -.9696E-01   D at  134  1
       a =  1.250      CL =  0.4555
      Cm = -0.0776     CD =  0.02428   =>   CDf =  0.00823    CDp =  0.01604

 Side 1  free  transition at x/c =  0.7982  134
 Side 2 forced transition at x/c =  1.0000  144

   4   rms: 0.3520E-02   max: 0.1864E-01   T at  134  1
       a =  1.250      CL =  0.4527
      Cm = -0.0773     CD =  0.02450   =>   CDf =  0.00824    CDp =  0.01626

 Side 1  free  transition at x/c =  0.7972  134
 Side 2 forced transition at x/c =  1.0000  144

   5   rms: 0.8044E-03   max: -.3545E-02   T at  134  1
       a =  1.250      CL =  0.4533
      Cm = -0.0774     CD =  0.02445   =>   CDf =  0.00823    CDp =  0.01622

 Side 1  free  transition at x/c =  0.7974  134
 Side 2 forced transition at x/c =  1.0000  144

   6   rms: 0.1266E-03   max: -.4567E-03   T at  134  1
       a =  1.250      CL =  0.4535
      Cm = -0.0774     CD =  0.02445   =>   CDf =  0.00824    CDp =  0.01622

 Side 1  free  transition at x/c =  0.7974  134
 Side 2 forced transition at x/c =  1.0000  144

   7   rms: 0.1376E-04   max: -.6325E-04   T at  134  1
       a =  1.250      CL =  0.4535
      Cm = -0.0774     CD =  0.02445   =>   CDf =  0.00824    CDp =  0.01622
 plradd ia,ip,cpol            5         157  0.14556399    

 Point added to stored polar  1
 Save file unspecified or not available
 Dump file unspecified or not available

.OPERva   c>  
.OPERva   c>  
.OPERva   c>   Calculating wake trajectory ...
 Array size (IWX) too small.  Last wake point index reduced.
 Calculating source influence matrix ...

 Solving BL system ...

 Side 1  free  transition at x/c =  0.7974  134
 Side 2 forced transition at x/c =  1.0000  144
 idif Ue xi dudx           1  7.44238496E-02  1.17743015E-03   63.208717    
 Uenew xinew           2  1.10765477E-03  1.75237656E-05

   1   rms: 0.9565E-01   max: 0.7058E+00   T at  134  1
       a =  1.500      CL =  0.3784
      Cm = -0.0631     CD =  0.02796   =>   CDf =  0.00827    CDp =  0.01969

 Side 1  free  transition at x/c =  0.7656  130
 Side 2 forced transition at x/c =  1.0000  145

   2   rms: 0.3563E+01   max: -.8779E+02   D at    2  2   RLX: 0.006
       a =  1.500      CL =  0.3732
      Cm = -0.0592     CD =  0.03021   =>   CDf =  0.00830    CDp =  0.02190

 Side 1  free  transition at x/c =  0.7658  131
 Side 2 forced transition at x/c =  1.0000  144

   3   rms: 0.5698E+00   max: -.1264E+02   D at    2  1   RLX: 0.040
       a =  1.500      CL =  0.3832
      Cm = -0.0607     CD =  0.02977   =>   CDf =  0.00833    CDp =  0.02144

 Side 1  free  transition at x/c =  0.7676  131
 Side 2 forced transition at x/c =  1.0000  144
 idif Ue xi dudx           2  0.18277952      3.29542160E-03   55.464684    
 Uenew xinew           3  0.11844567      2.13551521E-03

   4   rms: 0.1429E+01   max: 0.6538E+01   T at  131  1   RLX: 0.092
       a =  1.500      CL =  0.2483
      Cm = -0.0426     CD =  0.03392   =>   CDf =  0.00840    CDp =  0.02552

 Side 1  free  transition at x/c =  0.7465  127
 Side 2 forced transition at x/c =  1.0000  146

   5   rms: 0.2504E+00   max: 0.1247E+01   C at  146  2   RLX: 0.474
       a =  1.500      CL =  0.3563
      Cm = -0.0548     CD =  0.02964   =>   CDf =  0.00845    CDp =  0.02119

 Side 1  free  transition at x/c =  0.7719  131
 Side 2 forced transition at x/c =  1.0000  145

   6   rms: 0.7491E-01   max: 0.6398E+00   C at  145  2
       a =  1.500      CL =  0.4309
      Cm = -0.0696     CD =  0.02480   =>   CDf =  0.00842    CDp =  0.01638

 Side 1  free  transition at x/c =  0.7779  132
 Side 2 forced transition at x/c =  1.0000  144

   7   rms: 0.1172E+00   max: -.4627E+00   T at  132  1
       a =  1.500      CL =  0.5372
      Cm = -0.0839     CD =  0.02153   =>   CDf =  0.00831    CDp =  0.01322

 Side 1  free  transition at x/c =  0.8094  137
 Side 2 forced transition at x/c =  1.0000  143

   8   rms: 0.5135E-01   max: 0.4030E+00   D at  137  1
       a =  1.500      CL =  0.5616
      Cm = -0.0891     CD =  0.02192   =>   CDf =  0.00832    CDp =  0.01360

 Side 1  free  transition at x/c =  0.8026  137
 Side 2 forced transition at x/c =  1.0000  142
 idif Ue xi dudx           2  0.13091306      2.48253345E-03   52.733654    
 Uenew xinew           3  6.79050609E-02  1.28769875E-03

   9   rms: 0.1131E+00   max: 0.4742E+00   D at  141  1
       a =  1.500      CL =  0.4582
      Cm = -0.0738     CD =  0.02542   =>   CDf =  0.00837    CDp =  0.01705

 Side 1  free  transition at x/c =  0.7809  133
 Side 2 forced transition at x/c =  1.0000  144

  10   rms: 0.2273E-01   max: -.2727E+00   D at  134  1
       a =  1.500      CL =  0.4750
      Cm = -0.0761     CD =  0.02426   =>   CDf =  0.00828    CDp =  0.01598

 Side 1  free  transition at x/c =  0.7844  134
 Side 2 forced transition at x/c =  1.0000  143

  11   rms: 0.6421E-02   max: -.7703E-01   D at    2  1
       a =  1.500      CL =  0.4719
      Cm = -0.0757     CD =  0.02455   =>   CDf =  0.00829    CDp =  0.01626

 Side 1  free  transition at x/c =  0.7832  134
 Side 2 forced transition at x/c =  1.0000  143

  12   rms: 0.2365E-02   max: -.4409E-01   D at    4  1
       a =  1.500      CL =  0.4720
      Cm = -0.0757     CD =  0.02451   =>   CDf =  0.00829    CDp =  0.01622

 Side 1  free  transition at x/c =  0.7833  134
 Side 2 forced transition at x/c =  1.0000  143

  13   rms: 0.5873E-04   max: 0.1007E-02   D at    6  1
       a =  1.500      CL =  0.4720
      Cm = -0.0757     CD =  0.02451   =>   CDf =  0.00829    CDp =  0.01622
 plradd ia,ip,cpol            6         158  0.13839480    

 Point added to stored polar  1
 Save file unspecified or not available
 Dump file unspecified or not available

.OPERva   c>  
.OPERva   c>  
.OPERva   c>   Calculating wake trajectory ...
 Array size (IWX) too small.  Last wake point index reduced.
 Calculating source influence matrix ...

 Solving BL system ...

 Side 1  free  transition at x/c =  0.7833  134
 Side 2 forced transition at x/c =  1.0000  143

   1   rms: 0.4363E-01   max: 0.2073E+00   T at  134  1
       a =  1.750      CL =  0.5031
      Cm = -0.0757     CD =  0.02418   =>   CDf =  0.00829    CDp =  0.01588

 Side 1  free  transition at x/c =  0.7726  133
 Side 2 forced transition at x/c =  1.0000  143

   2   rms: 0.9395E-02   max: -.9057E-01   D at  133  1
       a =  1.750      CL =  0.4941
      Cm = -0.0745     CD =  0.02455   =>   CDf =  0.00835    CDp =  0.01620

 Side 1  free  transition at x/c =  0.7702  133
 Side 2 forced transition at x/c =  1.0000  143

   3   rms: 0.6094E-02   max: -.3253E-01   D at  139  1
       a =  1.750      CL =  0.4976
      Cm = -0.0749     CD =  0.02434   =>   CDf =  0.00835    CDp =  0.01599

 Side 1  free  transition at x/c =  0.7712  133
 Side 2 forced transition at x/c =  1.0000  143

   4   rms: 0.5902E-03   max: -.2227E-02   D at  141  1
       a =  1.750      CL =  0.4981
      Cm = -0.0750     CD =  0.02436   =>   CDf =  0.00835    CDp =  0.01601

 Side 1  free  transition at x/c =  0.7713  133
 Side 2 forced transition at x/c =  1.0000  143

   5   rms: 0.2877E-04   max: 0.1114E-03   C at  143  2
       a =  1.750      CL =  0.4982
      Cm = -0.0750     CD =  0.02436   =>   CDf =  0.00835    CDp =  0.01602
 plradd ia,ip,cpol            7         158  0.13141140    

 Point added to stored polar  1
 Save file unspecified or not available
 Dump file unspecified or not available

.OPERva   c>  
.OPERva   c>  
.OPERva   c>   Calculating wake trajectory ...
 Array size (IWX) too small.  Last wake point index reduced.
 Calculating source influence matrix ...

 Solving BL system ...

 Side 1  free  transition at x/c =  0.7713  133
 Side 2 forced transition at x/c =  1.0000  143

   1   rms: 0.5089E-01   max: -.5532E-01   D at  153  2
       a =  2.000      CL =  0.5386
      Cm = -0.0761     CD =  0.02364   =>   CDf =  0.00832    CDp =  0.01532

 Side 1  free  transition at x/c =  0.7634  133
 Side 2 forced transition at x/c =  1.0000  142

   2   rms: 0.3140E-01   max: 0.1508E+00   D at  139  1
       a =  2.000      CL =  0.5115
      Cm = -0.0726     CD =  0.02488   =>   CDf =  0.00840    CDp =  0.01648

 Side 1  free  transition at x/c =  0.7564  132
 Side 2 forced transition at x/c =  1.0000  142

   3   rms: 0.1434E-01   max: -.8789E-01   D at  132  1
       a =  2.000      CL =  0.5222
      Cm = -0.0739     CD =  0.02420   =>   CDf =  0.00840    CDp =  0.01579

 Side 1  free  transition at x/c =  0.7594  132
 Side 2 forced transition at x/c =  1.0000  142

   4   rms: 0.1629E-02   max: 0.9913E-02   D at  160  1
       a =  2.000      CL =  0.5216
      Cm = -0.0739     CD =  0.02434   =>   CDf =  0.00840    CDp =  0.01594

 Side 1  free  transition at x/c =  0.7589  132
 Side 2 forced transition at x/c =  1.0000  142

   5   rms: 0.1077E-03   max: -.6916E-03   D at  160  1
       a =  2.000      CL =  0.5216
      Cm = -0.0739     CD =  0.02433   =>   CDf =  0.00840    CDp =  0.01593

 Side 1  free  transition at x/c =  0.7589  132
 Side 2 forced transition at x/c =  1.0000  142

   6   rms: 0.8322E-05   max: -.3331E-04   D at  159  1
       a =  2.000      CL =  0.5216
      Cm = -0.0739     CD =  0.02433   =>   CDf =  0.00840    CDp =  0.01593
 plradd ia,ip,cpol            8         159  0.11805370    

 Point added to stored polar  1
 Save file unspecified or not available
 Dump file unspecified or not available

.OPERva   c>  
.OPERva   c>  
.OPERva   c>   Calculating wake trajectory ...
 Array size (IWX) too small.  Last wake point index reduced.
 Calculating source influence matrix ...

 Solving BL system ...

 Side 1  free  transition at x/c =  0.7589  132
 Side 2 forced transition at x/c =  1.0000  142
 idif Ue xi dudx           1  7.30378926E-02  1.32477283E-03   55.132389    
 Uenew xinew           2  7.16379937E-03  1.29938126E-04

   1   rms: 0.1003E+00   max: 0.6851E+00   T at  132  1
       a =  2.250      CL =  0.4521
      Cm = -0.0610     CD =  0.02832   =>   CDf =  0.00845    CDp =  0.01987

 Side 1  free  transition at x/c =  0.7284  128
 Side 2 forced transition at x/c =  1.0000  143

   2   rms: 0.3924E+00   max: -.2209E+01   D at    2  2   RLX: 0.226
       a =  2.250      CL =  0.5229
      Cm = -0.0665     CD =  0.02678   =>   CDf =  0.00843    CDp =  0.01835

 Side 1  free  transition at x/c =  0.7478  131
 Side 2 forced transition at x/c =  1.0000  142

   3   rms: 0.4610E-01   max: -.2320E+00   D at  131  1
       a =  2.250      CL =  0.5621
      Cm = -0.0746     CD =  0.02319   =>   CDf =  0.00848    CDp =  0.01472

 Side 1  free  transition at x/c =  0.7530  133
 Side 2 forced transition at x/c =  1.0000  141

   4   rms: 0.2051E-01   max: 0.1421E+00   D at  138  1
       a =  2.250      CL =  0.5553
      Cm = -0.0742     CD =  0.02410   =>   CDf =  0.00845    CDp =  0.01564

 Side 1  free  transition at x/c =  0.7484  132
 Side 2 forced transition at x/c =  1.0000  141
 idif Ue xi dudx           1  7.69712478E-02  1.42216682E-03   54.122517    
 Uenew xinew           2  1.12843849E-02  2.08497047E-04

   5   rms: 0.3415E-01   max: 0.1297E+00   D at  149  1
       a =  2.250      CL =  0.5256
      Cm = -0.0702     CD =  0.02524   =>   CDf =  0.00849    CDp =  0.01675

 Side 1  free  transition at x/c =  0.7416  131
 Side 2 forced transition at x/c =  1.0000  142

   6   rms: 0.1631E-01   max: -.8590E-01   D at  138  1
       a =  2.250      CL =  0.5358
      Cm = -0.0715     CD =  0.02455   =>   CDf =  0.00845    CDp =  0.01610

 Side 1  free  transition at x/c =  0.7444  131
 Side 2 forced transition at x/c =  1.0000  142

   7   rms: 0.3681E-02   max: -.1578E-01   D at  136  1
       a =  2.250      CL =  0.5387
      Cm = -0.0719     CD =  0.02453   =>   CDf =  0.00844    CDp =  0.01609

 Side 1  free  transition at x/c =  0.7450  131
 Side 2 forced transition at x/c =  1.0000  142

   8   rms: 0.3033E-03   max: 0.1106E-02   C at  142  2
       a =  2.250      CL =  0.5390
      Cm = -0.0719     CD =  0.02454   =>   CDf =  0.00844    CDp =  0.01610

 Side 1  free  transition at x/c =  0.7450  131
 Side 2 forced transition at x/c =  1.0000  142

   9   rms: 0.2023E-04   max: -.2738E-03   D at    4  2
       a =  2.250      CL =  0.5390
      Cm = -0.0719     CD =  0.02455   =>   CDf =  0.00844    CDp =  0.01611
 plradd ia,ip,cpol            9         159  0.11170318    

 Point added to stored polar  1
 Save file unspecified or not available
 Dump file unspecified or not available

.OPERva   c>  
.OPERva   c>  
.OPERva   c>   Calculating wake trajectory ...
 Array size (IWX) too small.  Last wake point index reduced.
 Calculating source influence matrix ...

 Solving BL system ...

 Side 1  free  transition at x/c =  0.7450  131
 Side 2 forced transition at x/c =  1.0000  142

   1   rms: 0.4000E-01   max: 0.2264E+00   T at  131  1
       a =  2.500      CL =  0.5646
      Cm = -0.0710     CD =  0.02444   =>   CDf =  0.00840    CDp =  0.01604

 Side 1  free  transition at x/c =  0.7335  131
 Side 2 forced transition at x/c =  1.0000  141

   2   rms: 0.5785E-02   max: -.1116E+00   D at  131  1
       a =  2.500      CL =  0.5625
      Cm = -0.0707     CD =  0.02456   =>   CDf =  0.00849    CDp =  0.01607

 Side 1  free  transition at x/c =  0.7327  131
 Side 2 forced transition at x/c =  1.0000  141

   3   rms: 0.1853E-02   max: -.1403E-01   D at    3  2
       a =  2.500      CL =  0.5637
      Cm = -0.0709     CD =  0.02451   =>   CDf =  0.00849    CDp =  0.01602

 Side 1  free  transition at x/c =  0.7330  131
 Side 2 forced transition at x/c =  1.0000  141

   4   rms: 0.1121E-03   max: 0.4390E-03   C at  141  2
       a =  2.500      CL =  0.5639
      Cm = -0.0709     CD =  0.02452   =>   CDf =  0.00849    CDp =  0.01603

 Side 1  free  transition at x/c =  0.7330  131
 Side 2 forced transition at x/c =  1.0000  141

   5   rms: 0.4141E-05   max: 0.1997E-04   C at  141  2
       a =  2.500      CL =  0.5639
      Cm = -0.0709     CD =  0.02452   =>   CDf =  0.00849    CDp =  0.01603
 plradd ia,ip,cpol           10         160  9.97066200E-02

 Point added to stored polar  1
 Save file unspecified or not available
 Dump file unspecified or not available

.OPERva   c>  
.OPERva   c>  
.OPERva   c>   Calculating wake trajectory ...
 Array size (IWX) too small.  Last wake point index reduced.
 Calculating source influence matrix ...

 Solving BL system ...

 Side 1  free  transition at x/c =  0.7330  131
 Side 2 forced transition at x/c =  1.0000  141

   1   rms: 0.4819E-01   max: -.4790E-01   D at  151  2
       a =  2.750      CL =  0.6007
      Cm = -0.0712     CD =  0.02391   =>   CDf =  0.00845    CDp =  0.01546

 Side 1  free  transition at x/c =  0.7244  131
 Side 2 forced transition at x/c =  1.0000  140

   2   rms: 0.2256E-01   max: 0.1176E+00   D at  137  1
       a =  2.750      CL =  0.5816
      Cm = -0.0689     CD =  0.02496   =>   CDf =  0.00853    CDp =  0.01644

 Side 1  free  transition at x/c =  0.7192  130
 Side 2 forced transition at x/c =  1.0000  140

   3   rms: 0.1757E-01   max: -.7788E-01   D at  138  1
       a =  2.750      CL =  0.5946
      Cm = -0.0704     CD =  0.02413   =>   CDf =  0.00854    CDp =  0.01559

 Side 1  free  transition at x/c =  0.7230  131
 Side 2 forced transition at x/c =  1.0000  140

   4   rms: 0.8110E-02   max: 0.5389E-01   D at  136  1
       a =  2.750      CL =  0.5912
      Cm = -0.0701     CD =  0.02448   =>   CDf =  0.00854    CDp =  0.01594

 Side 1  free  transition at x/c =  0.7215  131
 Side 2 forced transition at x/c =  1.0000  140

   5   rms: 0.4590E-03   max: -.1965E-02   C at  140  2
       a =  2.750      CL =  0.5906
      Cm = -0.0700     CD =  0.02444   =>   CDf =  0.00854    CDp =  0.01590

 Side 1  free  transition at x/c =  0.7215  131
 Side 2 forced transition at x/c =  1.0000  140

   6   rms: 0.3566E-05   max: -.3541E-04   D at    3  1
       a =  2.750      CL =  0.5906
      Cm = -0.0700     CD =  0.02444   =>   CDf =  0.00854    CDp =  0.01590
 plradd ia,ip,cpol           11         161  8.86892006E-02

 Point added to stored polar  1
 Save file unspecified or not available
 Dump file unspecified or not available

.OPERva   c>  
.OPERva   c>  
.OPERva   c>   Calculating wake trajectory ...
 Array size (IWX) too small.  Last wake point index reduced.
 Calculating source influence matrix ...

 Solving BL system ...

 Side 1  free  transition at x/c =  0.7215  131
 Side 2 forced transition at x/c =  1.0000  140

   1   rms: 0.5396E-01   max: -.6324E-01   D at  151  2
       a =  3.000      CL =  0.6330
      Cm = -0.0710     CD =  0.02358   =>   CDf =  0.00850    CDp =  0.01508

 Side 1  free  transition at x/c =  0.7143  131
 Side 2 forced transition at x/c =  1.0000  139
 idif Ue xi dudx           1  7.40472302E-02  1.45626068E-03   50.847511    
 Uenew xinew           2  1.02318050E-02  2.01225281E-04

   2   rms: 0.3531E-01   max: 0.1932E+00   D at  136  1
       a =  3.000      CL =  0.6045
      Cm = -0.0676     CD =  0.02516   =>   CDf =  0.00861    CDp =  0.01654

 Side 1  free  transition at x/c =  0.7068  129
 Side 2 forced transition at x/c =  1.0000  140

   3   rms: 0.6978E-02   max: -.8885E-01   D at  129  1
       a =  3.000      CL =  0.6085
      Cm = -0.0681     CD =  0.02470   =>   CDf =  0.00859    CDp =  0.01612

 Side 1  free  transition at x/c =  0.7080  129
 Side 2 forced transition at x/c =  1.0000  140

   4   rms: 0.2005E-02   max: 0.9951E-02   D at  135  1
       a =  3.000      CL =  0.6072
      Cm = -0.0679     CD =  0.02481   =>   CDf =  0.00856    CDp =  0.01625

 Side 1  free  transition at x/c =  0.7075  129
 Side 2 forced transition at x/c =  1.0000  140

   5   rms: 0.1073E-03   max: -.5560E-03   C at  140  2
       a =  3.000      CL =  0.6071
      Cm = -0.0679     CD =  0.02480   =>   CDf =  0.00856    CDp =  0.01624

 Side 1  free  transition at x/c =  0.7075  129
 Side 2 forced transition at x/c =  1.0000  140

   6   rms: 0.5143E-05   max: 0.8450E-04   D at    3  2
       a =  3.000      CL =  0.6071
      Cm = -0.0679     CD =  0.02480   =>   CDf =  0.00856    CDp =  0.01624
 plradd ia,ip,cpol           12         161  8.35534930E-02

 Point added to stored polar  1
 Save file unspecified or not available
 Dump file unspecified or not available

.OPERva   c>  
.OPERva   c>  
.OPERva   c>   Calculating wake trajectory ...
 Array size (IWX) too small.  Last wake point index reduced.
 Calculating source influence matrix ...

 Solving BL system ...

 Side 1  free  transition at x/c =  0.7075  129
 Side 2 forced transition at x/c =  1.0000  140

   1   rms: 0.3432E-01   max: 0.2862E+00   T at  129  1
       a =  3.250      CL =  0.6199
      Cm = -0.0654     CD =  0.02541   =>   CDf =  0.00852    CDp =  0.01690

 Side 1  free  transition at x/c =  0.6930  129
 Side 2 forced transition at x/c =  1.0000  139

   2   rms: 0.2153E-01   max: -.1764E+00   D at  129  1
       a =  3.250      CL =  0.6321
      Cm = -0.0667     CD =  0.02463   =>   CDf =  0.00861    CDp =  0.01603

 Side 1  free  transition at x/c =  0.6961  129
 Side 2 forced transition at x/c =  1.0000  139

   3   rms: 0.4480E-02   max: 0.2987E-01   D at  134  1
       a =  3.250      CL =  0.6306
      Cm = -0.0667     CD =  0.02494   =>   CDf =  0.00860    CDp =  0.01634

 Side 1  free  transition at x/c =  0.6950  129
 Side 2 forced transition at x/c =  1.0000  139

   4   rms: 0.2543E-03   max: -.1289E-02   D at  133  1
       a =  3.250      CL =  0.6303
      Cm = -0.0666     CD =  0.02491   =>   CDf =  0.00860    CDp =  0.01632

 Side 1  free  transition at x/c =  0.6950  129
 Side 2 forced transition at x/c =  1.0000  139

   5   rms: 0.1646E-04   max: -.5993E-04   D at  146  1
       a =  3.250      CL =  0.6303
      Cm = -0.0666     CD =  0.02491   =>   CDf =  0.00860    CDp =  0.01632
 plradd ia,ip,cpol           13         162  7.40184337E-02

 Point added to stored polar  1
 Save file unspecified or not available
 Dump file unspecified or not available

.OPERva   c>  
.OPERva   c>  
.OPERva   c>   Calculating wake trajectory ...
 Array size (IWX) too small.  Last wake point index reduced.
 Calculating source influence matrix ...

 Solving BL system ...

 Side 1  free  transition at x/c =  0.6950  129
 Side 2 forced transition at x/c =  1.0000  139

   1   rms: 0.4429E-01   max: 0.2098E+00   T at  129  1
       a =  3.500      CL =  0.6619
      Cm = -0.0662     CD =  0.02457   =>   CDf =  0.00855    CDp =  0.01603

 Side 1  free  transition at x/c =  0.6849  129
 Side 2 forced transition at x/c =  1.0000  138

   2   rms: 0.1055E-01   max: -.9085E-01   D at  129  1
       a =  3.500      CL =  0.6526
      Cm = -0.0652     CD =  0.02516   =>   CDf =  0.00863    CDp =  0.01653

 Side 1  free  transition at x/c =  0.6822  129
 Side 2 forced transition at x/c =  1.0000  138

   3   rms: 0.6033E-02   max: -.3752E-01   D at  133  1
       a =  3.500      CL =  0.6561
      Cm = -0.0656     CD =  0.02490   =>   CDf =  0.00865    CDp =  0.01625

 Side 1  free  transition at x/c =  0.6832  129
 Side 2 forced transition at x/c =  1.0000  138

   4   rms: 0.5573E-03   max: -.2106E-02   D at  136  1
       a =  3.500      CL =  0.6567
      Cm = -0.0657     CD =  0.02491   =>   CDf =  0.00864    CDp =  0.01627

 Side 1  free  transition at x/c =  0.6832  129
 Side 2 forced transition at x/c =  1.0000  138

   5   rms: 0.3241E-04   max: 0.1532E-03   C at  138  2
       a =  3.500      CL =  0.6567
      Cm = -0.0657     CD =  0.02491   =>   CDf =  0.00864    CDp =  0.01627
 plradd ia,ip,cpol           14         163  6.54287189E-02

 Point added to stored polar  1
 Save file unspecified or not available
 Dump file unspecified or not available

.OPERva   c>  
.OPERva   c>  
.OPERva   c>   Calculating wake trajectory ...
 Array size (IWX) too small.  Last wake point index reduced.
 Calculating source influence matrix ...

 Solving BL system ...

 Side 1  free  transition at x/c =  0.6832  129
 Side 2 forced transition at x/c =  1.0000  138

   1   rms: 0.5234E-01   max: -.5641E-01   D at  148  2
       a =  3.750      CL =  0.6964
      Cm = -0.0662     CD =  0.02417   =>   CDf =  0.00859    CDp =  0.01558

 Side 1  free  transition at x/c =  0.6750  129
 Side 2 forced transition at x/c =  1.0000  137
 idif Ue xi dudx           1  7.77126253E-02  1.62899494E-03   47.705872    
 Uenew xinew           2  1.56278294E-02  3.27587128E-04

   2   rms: 0.3037E-01   max: -.4025E+00   T at    2  1
       a =  3.750      CL =  0.6758
      Cm = -0.0639     CD =  0.02544   =>   CDf =  0.00871    CDp =  0.01673

 Side 1  free  transition at x/c =  0.6694  127
 Side 2 forced transition at x/c =  1.0000  138

   3   rms: 0.6024E-02   max: -.7820E-01   D at    3  1
       a =  3.750      CL =  0.6779
      Cm = -0.0641     CD =  0.02513   =>   CDf =  0.00868    CDp =  0.01645

 Side 1  free  transition at x/c =  0.6703  127
 Side 2 forced transition at x/c =  1.0000  138

   4   rms: 0.1427E-02   max: -.1782E-01   D at    3  2
       a =  3.750      CL =  0.6774
      Cm = -0.0641     CD =  0.02519   =>   CDf =  0.00866    CDp =  0.01652

 Side 1  free  transition at x/c =  0.6701  127
 Side 2 forced transition at x/c =  1.0000  138

   5   rms: 0.7549E-04   max: -.3893E-03   C at  138  2
       a =  3.750      CL =  0.6773
      Cm = -0.0640     CD =  0.02518   =>   CDf =  0.00866    CDp =  0.01652
 plradd ia,ip,cpol           15         163  6.14686944E-02

 Point added to stored polar  1
 Save file unspecified or not available
 Dump file unspecified or not available

.OPERva   c>  
.OPERva   c>  
.OPERva   c>   Calculating wake trajectory ...
 Array size (IWX) too small.  Last wake point index reduced.
 Calculating source influence matrix ...

 Solving BL system ...

 Side 1  free  transition at x/c =  0.6701  127
 Side 2 forced transition at x/c =  1.0000  138

   1   rms: 0.4209E-01   max: 0.3699E+00   T at  127  1
       a =  4.000      CL =  0.6728
      Cm = -0.0596     CD =  0.02684   =>   CDf =  0.00861    CDp =  0.01823

 Side 1  free  transition at x/c =  0.6519  126
 Side 2 forced transition at x/c =  1.0000  137
 idif Ue xi dudx           1  6.05554953E-02  1.32691860E-03   45.636181    
 Uenew xinew           2  1.16421492E-03  2.55107880E-05

   2   rms: 0.2491E+01   max: -.6185E+02   T at    2  1   RLX: 0.008
       a =  4.000      CL =  0.6701
      Cm = -0.0579     CD =  0.02751   =>   CDf =  0.00875    CDp =  0.01877

 Side 1  free  transition at x/c =  0.6520  125
 Side 2 forced transition at x/c =  1.0000  138

   3   rms: 0.1630E+00   max: 0.3359E+01   D at    2  2   RLX: 0.447
       a =  4.000      CL =  0.6972
      Cm = -0.0611     CD =  0.02554   =>   CDf =  0.00862    CDp =  0.01692

 Side 1  free  transition at x/c =  0.6596  127
 Side 2 forced transition at x/c =  1.0000  137

   4   rms: 0.2758E-01   max: 0.3571E+00   T at    3  2
       a =  4.000      CL =  0.6937
      Cm = -0.0620     CD =  0.02586   =>   CDf =  0.00874    CDp =  0.01712

 Side 1  free  transition at x/c =  0.6551  127
 Side 2 forced transition at x/c =  1.0000  137

   5   rms: 0.1017E-01   max: 0.1189E+00   T at    3  1
       a =  4.000      CL =  0.6970
      Cm = -0.0623     CD =  0.02546   =>   CDf =  0.00868    CDp =  0.01677

 Side 1  free  transition at x/c =  0.6567  127
 Side 2 forced transition at x/c =  1.0000  137

   6   rms: 0.1437E-02   max: -.5683E-02   D at  134  1
       a =  4.000      CL =  0.6984
      Cm = -0.0624     CD =  0.02544   =>   CDf =  0.00868    CDp =  0.01676

 Side 1  free  transition at x/c =  0.6568  127
 Side 2 forced transition at x/c =  1.0000  137

   7   rms: 0.1136E-03   max: 0.5883E-03   C at  137  2
       a =  4.000      CL =  0.6985
      Cm = -0.0625     CD =  0.02544   =>   CDf =  0.00868    CDp =  0.01676

 Side 1  free  transition at x/c =  0.6568  127
 Side 2 forced transition at x/c =  1.0000  137

   8   rms: 0.5459E-05   max: 0.2497E-04   C at  137  2
       a =  4.000      CL =  0.6985
      Cm = -0.0625     CD =  0.02544   =>   CDf =  0.00868    CDp =  0.01676
 plradd ia,ip,cpol           16         164  5.08120470E-02

 Point added to stored polar  1
 Save file unspecified or not available
 Dump file unspecified or not available

.OPERva   c>  
.OPERva   c>  
.OPERva   c>   Calculating wake trajectory ...
 Array size (IWX) too small.  Last wake point index reduced.
 Calculating source influence matrix ...

 Solving BL system ...

 Side 1  free  transition at x/c =  0.6568  127
 Side 2 forced transition at x/c =  1.0000  137

   1   rms: 0.4099E-01   max: 0.2371E+00   T at  127  1
       a =  4.250      CL =  0.7258
      Cm = -0.0615     CD =  0.02535   =>   CDf =  0.00862    CDp =  0.01673

 Side 1  free  transition at x/c =  0.6453  127
 Side 2 forced transition at x/c =  1.0000  136
 idif Ue xi dudx           1  6.22116886E-02  1.34360790E-03   46.301968    
 Uenew xinew           2  7.67227844E-04  1.65700912E-05

   2   rms: 0.5261E-02   max: -.1220E+00   D at  127  1
       a =  4.250      CL =  0.7231
      Cm = -0.0613     CD =  0.02556   =>   CDf =  0.00878    CDp =  0.01678

 Side 1  free  transition at x/c =  0.6442  126
 Side 2 forced transition at x/c =  1.0000  137

   3   rms: 0.2834E-02   max: 0.4810E-01   T at    2  2
       a =  4.250      CL =  0.7245
      Cm = -0.0614     CD =  0.02549   =>   CDf =  0.00865    CDp =  0.01684

 Side 1  free  transition at x/c =  0.6445  127
 Side 2 forced transition at x/c =  1.0000  136

   4   rms: 0.1287E-01   max: 0.3203E+00   D at    2  1
       a =  4.250      CL =  0.7247
      Cm = -0.0615     CD =  0.02549   =>   CDf =  0.00871    CDp =  0.01678

 Side 1  free  transition at x/c =  0.6445  127
 Side 2 forced transition at x/c =  1.0000  136

   5   rms: 0.2910E-02   max: 0.5329E-01   D at    4  1
       a =  4.250      CL =  0.7247
      Cm = -0.0615     CD =  0.02549   =>   CDf =  0.00871    CDp =  0.01678

 Side 1  free  transition at x/c =  0.6445  127
 Side 2 forced transition at x/c =  1.0000  136

   6   rms: 0.4807E-04   max: 0.7672E-03   D at    6  1
       a =  4.250      CL =  0.7247
      Cm = -0.0615     CD =  0.02549   =>   CDf =  0.00871    CDp =  0.01678
 plradd ia,ip,cpol           17         165  4.76332381E-02

 Point added to stored polar  1
 Save file unspecified or not available
 Dump file unspecified or not available

.OPERva   c>  
.OPERva   c>  
.OPERva   c>   Calculating wake trajectory ...
 Array size (IWX) too small.  Last wake point index reduced.
 Calculating source influence matrix ...

 Solving BL system ...

 Side 1  free  transition at x/c =  0.6445  127
 Side 2 forced transition at x/c =  1.0000  136

   1   rms: 0.5225E-01   max: 0.2080E+00   T at  127  1
       a =  4.500      CL =  0.7631
      Cm = -0.0618     CD =  0.02481   =>   CDf =  0.00872    CDp =  0.01609

 Side 1  free  transition at x/c =  0.6354  126
 Side 2 forced transition at x/c =  1.0000  136

   2   rms: 0.1933E-01   max: 0.1323E+00   D at  131  1
       a =  4.500      CL =  0.7476
      Cm = -0.0602     CD =  0.02587   =>   CDf =  0.00872    CDp =  0.01715

 Side 1  free  transition at x/c =  0.6311  125
 Side 2 forced transition at x/c =  1.0000  136

   3   rms: 0.3066E-02   max: -.4392E-01   D at  125  1
       a =  4.500      CL =  0.7468
      Cm = -0.0600     CD =  0.02575   =>   CDf =  0.00876    CDp =  0.01700

 Side 1  free  transition at x/c =  0.6313  125
 Side 2 forced transition at x/c =  1.0000  136

   4   rms: 0.4146E-03   max: 0.2233E-02   D at  130  1
       a =  4.500      CL =  0.7465
      Cm = -0.0600     CD =  0.02577   =>   CDf =  0.00873    CDp =  0.01704

 Side 1  free  transition at x/c =  0.6312  125
 Side 2 forced transition at x/c =  1.0000  136

   5   rms: 0.3958E-04   max: -.1970E-03   C at  136  2
       a =  4.500      CL =  0.7465
      Cm = -0.0600     CD =  0.02577   =>   CDf =  0.00873    CDp =  0.01704
 plradd ia,ip,cpol           18         165  3.90749462E-02

 Point added to stored polar  1
 Save file unspecified or not available
 Dump file unspecified or not available

.OPERva   c>  
.OPERva   c>  
.OPERva   c>   Calculating wake trajectory ...
 Array size (IWX) too small.  Last wake point index reduced.
 Calculating source influence matrix ...

 Solving BL system ...

 Side 1  free  transition at x/c =  0.6312  125
 Side 2 forced transition at x/c =  1.0000  136

   1   rms: 0.4239E-01   max: 0.3716E+00   T at  125  1
       a =  4.750      CL =  0.7438
      Cm = -0.0558     CD =  0.02741   =>   CDf =  0.00874    CDp =  0.01867

 Side 1  free  transition at x/c =  0.6132  123
 Side 2 forced transition at x/c =  1.0000  136

   2   rms: 0.7810E-01   max: -.3213E+00   D at  132  1
       a =  4.750      CL =  0.7910
      Cm = -0.0601     CD =  0.02422   =>   CDf =  0.00866    CDp =  0.01556

 Side 1  free  transition at x/c =  0.6277  126
 Side 2 forced transition at x/c =  1.0000  135

   3   rms: 0.3358E-01   max: 0.2793E+00   D at  129  1
       a =  4.750      CL =  0.7992
      Cm = -0.0626     CD =  0.02490   =>   CDf =  0.00874    CDp =  0.01616

 Side 1  free  transition at x/c =  0.6214  125
 Side 2 forced transition at x/c =  1.0000  135

   4   rms: 0.4176E-01   max: 0.1797E+00   D at  130  1
       a =  4.750      CL =  0.7610
      Cm = -0.0576     CD =  0.02654   =>   CDf =  0.00872    CDp =  0.01782

 Side 1  free  transition at x/c =  0.6161  125
 Side 2 forced transition at x/c =  1.0000  135

   5   rms: 0.8783E-02   max: -.5213E-01   D at  128  1
       a =  4.750      CL =  0.7668
      Cm = -0.0582     CD =  0.02605   =>   CDf =  0.00875    CDp =  0.01730

 Side 1  free  transition at x/c =  0.6175  125
 Side 2 forced transition at x/c =  1.0000  135

   6   rms: 0.1189E-02   max: 0.5628E-02   C at  135  2
       a =  4.750      CL =  0.7680
      Cm = -0.0584     CD =  0.02605   =>   CDf =  0.00874    CDp =  0.01731

 Side 1  free  transition at x/c =  0.6175  125
 Side 2 forced transition at x/c =  1.0000  135

   7   rms: 0.8498E-04   max: 0.4372E-03   C at  135  2
       a =  4.750      CL =  0.7681
      Cm = -0.0584     CD =  0.02605   =>   CDf =  0.00874    CDp =  0.01731
 plradd ia,ip,cpol           19         166  3.65167521E-02

 Point added to stored polar  1
 Save file unspecified or not available
 Dump file unspecified or not available

.OPERva   c>  
.OPERva   c>  
.OPERva   c>   Calculating wake trajectory ...
 Array size (IWX) too small.  Last wake point index reduced.
 Calculating source influence matrix ...

 Solving BL system ...

 Side 1  free  transition at x/c =  0.6175  125
 Side 2 forced transition at x/c =  1.0000  135

   1   rms: 0.4301E-01   max: 0.2469E+00   T at  125  1
       a =  5.000      CL =  0.7972
      Cm = -0.0577     CD =  0.02587   =>   CDf =  0.00874    CDp =  0.01713

 Side 1  free  transition at x/c =  0.6058  124
 Side 2 forced transition at x/c =  1.0000  135

   2   rms: 0.5940E-02   max: -.1300E+00   D at  124  1
       a =  5.000      CL =  0.7939
      Cm = -0.0574     CD =  0.02616   =>   CDf =  0.00876    CDp =  0.01740

 Side 1  free  transition at x/c =  0.6045  124
 Side 2 forced transition at x/c =  1.0000  135

   3   rms: 0.2670E-02   max: -.1732E-01   D at  128  1
       a =  5.000      CL =  0.7956
      Cm = -0.0576     CD =  0.02607   =>   CDf =  0.00879    CDp =  0.01728

 Side 1  free  transition at x/c =  0.6049  124
 Side 2 forced transition at x/c =  1.0000  135

   4   rms: 0.2404E-03   max: 0.1050E-02   C at  135  2
       a =  5.000      CL =  0.7959
      Cm = -0.0576     CD =  0.02607   =>   CDf =  0.00878    CDp =  0.01729

 Side 1  free  transition at x/c =  0.6049  124
 Side 2 forced transition at x/c =  1.0000  135

   5   rms: 0.1121E-04   max: 0.5813E-04   C at  135  2
       a =  5.000      CL =  0.7959
      Cm = -0.0576     CD =  0.02607   =>   CDf =  0.00878    CDp =  0.01729
 plradd ia,ip,cpol           20         166  3.17910351E-02

 Point added to stored polar  1
 Save file unspecified or not available
 Dump file unspecified or not available

.OPERva   c>  
.OPERva   c>  
.OPERva   c>   Calculating wake trajectory ...
 Array size (IWX) too small.  Last wake point index reduced.
 Calculating source influence matrix ...

 Solving BL system ...

 Side 1  free  transition at x/c =  0.6049  124
 Side 2 forced transition at x/c =  1.0000  135

   1   rms: 0.5711E-01   max: 0.2268E+00   T at  124  1
       a =  5.250      CL =  0.8374
      Cm = -0.0582     CD =  0.02524   =>   CDf =  0.00871    CDp =  0.01652

 Side 1  free  transition at x/c =  0.5955  124
 Side 2 forced transition at x/c =  1.0000  134

   2   rms: 0.2141E-01   max: 0.1645E+00   D at  128  1
       a =  5.250      CL =  0.8209
      Cm = -0.0566     CD =  0.02642   =>   CDf =  0.00875    CDp =  0.01767

 Side 1  free  transition at x/c =  0.5909  123
 Side 2 forced transition at x/c =  1.0000  134

   3   rms: 0.8771E-02   max: -.5341E-01   D at  123  1
       a =  5.250      CL =  0.8146
      Cm = -0.0558     CD =  0.02657   =>   CDf =  0.00881    CDp =  0.01776

 Side 1  free  transition at x/c =  0.5901  123
 Side 2 forced transition at x/c =  1.0000  134

   4   rms: 0.4889E-03   max: -.3110E-02   D at  126  1
       a =  5.250      CL =  0.8145
      Cm = -0.0557     CD =  0.02651   =>   CDf =  0.00876    CDp =  0.01775

 Side 1  free  transition at x/c =  0.5902  123
 Side 2 forced transition at x/c =  1.0000  134

   5   rms: 0.5085E-04   max: 0.2893E-03   C at  134  2
       a =  5.250      CL =  0.8146
      Cm = -0.0558     CD =  0.02652   =>   CDf =  0.00876    CDp =  0.01775
 plradd ia,ip,cpol           21         167  2.96082702E-02

 Point added to stored polar  1
 Save file unspecified or not available
 Dump file unspecified or not available

.OPERva   c>  
.OPERva   c>  
.OPERva   c>   Calculating wake trajectory ...
 Array size (IWX) too small.  Last wake point index reduced.
 Calculating source influence matrix ...

 Solving BL system ...

 Side 1  free  transition at x/c =  0.5902  123
 Side 2 forced transition at x/c =  1.0000  134

   1   rms: 0.3619E-01   max: 0.2956E+00   T at  123  1
       a =  5.500      CL =  0.8325
      Cm = -0.0538     CD =  0.02699   =>   CDf =  0.00869    CDp =  0.01831

 Side 1  free  transition at x/c =  0.5757  123
 Side 2 forced transition at x/c =  1.0000  133

   2   rms: 0.1858E-01   max: -.1852E+00   D at  123  1
       a =  5.500      CL =  0.8409
      Cm = -0.0547     CD =  0.02646   =>   CDf =  0.00879    CDp =  0.01767

 Side 1  free  transition at x/c =  0.5772  123
 Side 2 forced transition at x/c =  1.0000  133

   3   rms: 0.2639E-02   max: 0.2254E-01   D at  127  1
       a =  5.500      CL =  0.8410
      Cm = -0.0548     CD =  0.02662   =>   CDf =  0.00879    CDp =  0.01783

 Side 1  free  transition at x/c =  0.5766  123
 Side 2 forced transition at x/c =  1.0000  133

   4   rms: 0.2304E-03   max: -.1391E-02   C at  133  2
       a =  5.500      CL =  0.8407
      Cm = -0.0547     CD =  0.02662   =>   CDf =  0.00880    CDp =  0.01782

 Side 1  free  transition at x/c =  0.5766  123
 Side 2 forced transition at x/c =  1.0000  133

   5   rms: 0.2123E-05   max: 0.1010E-04   D at  140  2
       a =  5.500      CL =  0.8407
      Cm = -0.0547     CD =  0.02662   =>   CDf =  0.00880    CDp =  0.01782
 plradd ia,ip,cpol           22         168  2.55691409E-02

 Point added to stored polar  1
 Save file unspecified or not available
 Dump file unspecified or not available

.OPERva   c>  
.OPERva   c>  
.OPERva   c>   Calculating wake trajectory ...
 Array size (IWX) too small.  Last wake point index reduced.
 Calculating source influence matrix ...

 Solving BL system ...

 Side 1  free  transition at x/c =  0.5766  123
 Side 2 forced transition at x/c =  1.0000  133

   1   rms: 0.5477E-01   max: 0.2477E+00   T at  123  1
       a =  5.750      CL =  0.8794
      Cm = -0.0550     CD =  0.02591   =>   CDf =  0.00881    CDp =  0.01710

 Side 1  free  transition at x/c =  0.5659  122
 Side 2 forced transition at x/c =  1.0000  133

   2   rms: 0.1461E-01   max: 0.1188E+00   D at  126  1
       a =  5.750      CL =  0.8682
      Cm = -0.0540     CD =  0.02678   =>   CDf =  0.00878    CDp =  0.01800

 Side 1  free  transition at x/c =  0.5627  121
 Side 2 forced transition at x/c =  1.0000  133

   3   rms: 0.9408E-02   max: -.3582E-01   D at  121  1
       a =  5.750      CL =  0.8618
      Cm = -0.0532     CD =  0.02703   =>   CDf =  0.00884    CDp =  0.01819

 Side 1  free  transition at x/c =  0.5618  121
 Side 2 forced transition at x/c =  1.0000  133

   4   rms: 0.5923E-03   max: -.3929E-02   D at  124  1
       a =  5.750      CL =  0.8617
      Cm = -0.0531     CD =  0.02696   =>   CDf =  0.00879    CDp =  0.01817

 Side 1  free  transition at x/c =  0.5619  121
 Side 2 forced transition at x/c =  1.0000  133

   5   rms: 0.5705E-04   max: 0.3169E-03   C at  133  2
       a =  5.750      CL =  0.8618
      Cm = -0.0532     CD =  0.02697   =>   CDf =  0.00879    CDp =  0.01817
 plradd ia,ip,cpol           23         168  2.37008426E-02

 Point added to stored polar  1
 Save file unspecified or not available
 Dump file unspecified or not available

.OPERva   c>  
.OPERva   c>  
.OPERva   c>   Calculating wake trajectory ...
 Array size (IWX) too small.  Last wake point index reduced.
 Calculating source influence matrix ...

 Solving BL system ...

 Side 1  free  transition at x/c =  0.5619  121
 Side 2 forced transition at x/c =  1.0000  133

   1   rms: 0.3588E-01   max: 0.3280E+00   T at  121  1
       a =  6.000      CL =  0.8743
      Cm = -0.0506     CD =  0.02778   =>   CDf =  0.00871    CDp =  0.01907

 Side 1  free  transition at x/c =  0.5458  120
 Side 2 forced transition at x/c =  1.0000  132

   2   rms: 0.3922E-01   max: -.2380E+00   D at  121  1
       a =  6.000      CL =  0.8960
      Cm = -0.0528     CD =  0.02641   =>   CDf =  0.00882    CDp =  0.01759

 Side 1  free  transition at x/c =  0.5507  121
 Side 2 forced transition at x/c =  1.0000  132

   3   rms: 0.1923E-01   max: 0.1553E+00   D at  125  1
       a =  6.000      CL =  0.8905
      Cm = -0.0526     CD =  0.02709   =>   CDf =  0.00881    CDp =  0.01828

 Side 1  free  transition at x/c =  0.5473  121
 Side 2 forced transition at x/c =  1.0000  132

   4   rms: 0.2389E-02   max: -.1381E-01   C at  132  2
       a =  6.000      CL =  0.8877
      Cm = -0.0521     CD =  0.02709   =>   CDf =  0.00883    CDp =  0.01826

 Side 1  free  transition at x/c =  0.5475  121
 Side 2 forced transition at x/c =  1.0000  132

   5   rms: 0.8616E-04   max: -.4576E-03   C at  132  2
       a =  6.000      CL =  0.8876
      Cm = -0.0521     CD =  0.02709   =>   CDf =  0.00883    CDp =  0.01826
 plradd ia,ip,cpol           24         169  2.19262354E-02

 Point added to stored polar  1
 Save file unspecified or not available
 Dump file unspecified or not available

.OPERva   c>  
.OPERva   c>  
.OPERva   c>   Calculating wake trajectory ...
 Array size (IWX) too small.  Last wake point index reduced.
 Calculating source influence matrix ...

 Solving BL system ...

 Side 1  free  transition at x/c =  0.5475  121
 Side 2 forced transition at x/c =  1.0000  132

   1   rms: 0.5651E-01   max: 0.2663E+00   T at  121  1
       a =  6.250      CL =  0.9267
      Cm = -0.0524     CD =  0.02637   =>   CDf =  0.00874    CDp =  0.01763

 Side 1  free  transition at x/c =  0.5361  120
 Side 2 forced transition at x/c =  1.0000  131
 idif Ue xi dudx           1  5.65021299E-02  1.53124332E-03   36.899509    
 Uenew xinew           2  1.82988599E-03  4.95910645E-05

   2   rms: 0.2825E-01   max: 0.1838E+00   D at  125  1
       a =  6.250      CL =  0.9030
      Cm = -0.0499     CD =  0.02783   =>   CDf =  0.00890    CDp =  0.01893

 Side 1  free  transition at x/c =  0.5310  119
 Side 2 forced transition at x/c =  1.0000  132

   3   rms: 0.6753E-02   max: -.4258E-01   D at  122  1
       a =  6.250      CL =  0.9071
      Cm = -0.0503     CD =  0.02746   =>   CDf =  0.00872    CDp =  0.01874

 Side 1  free  transition at x/c =  0.5321  120
 Side 2 forced transition at x/c =  1.0000  131

   4   rms: 0.1029E-02   max: 0.1071E-01   T at    2  1
       a =  6.250      CL =  0.9081
      Cm = -0.0504     CD =  0.02746   =>   CDf =  0.00881    CDp =  0.01864

 Side 1  free  transition at x/c =  0.5321  120
 Side 2 forced transition at x/c =  1.0000  131

   5   rms: 0.1062E-03   max: -.1717E-02   D at    4  1
       a =  6.250      CL =  0.9081
      Cm = -0.0504     CD =  0.02746   =>   CDf =  0.00881    CDp =  0.01864

 Side 1  free  transition at x/c =  0.5321  120
 Side 2 forced transition at x/c =  1.0000  131

   6   rms: 0.1150E-04   max: -.2068E-03   D at    4  1
       a =  6.250      CL =  0.9081
      Cm = -0.0504     CD =  0.02746   =>   CDf =  0.00881    CDp =  0.01864
 plradd ia,ip,cpol           25         170  2.19262354E-02

 Point added to stored polar  1
 Save file unspecified or not available
 Dump file unspecified or not available

.OPERva   c>  
.OPERva   c>  
.OPERva   c>   Calculating wake trajectory ...
 Array size (IWX) too small.  Last wake point index reduced.
 Calculating source influence matrix ...

 Solving BL system ...

 Side 1  free  transition at x/c =  0.5321  120
 Side 2 forced transition at x/c =  1.0000  131

   1   rms: 0.3732E-01   max: 0.3161E+00   T at  120  1
       a =  6.500      CL =  0.9265
      Cm = -0.0485     CD =  0.02790   =>   CDf =  0.00882    CDp =  0.01908

 Side 1  free  transition at x/c =  0.5165  118
 Side 2 forced transition at x/c =  1.0000  131

   2   rms: 0.2293E-01   max: -.2100E+00   D at  119  1
       a =  6.500      CL =  0.9371
      Cm = -0.0497     CD =  0.02728   =>   CDf =  0.00885    CDp =  0.01843

 Side 1  free  transition at x/c =  0.5181  119
 Side 2 forced transition at x/c =  1.0000  131

   3   rms: 0.3505E-02   max: 0.2757E-01   D at  123  1
       a =  6.500      CL =  0.9368
      Cm = -0.0497     CD =  0.02747   =>   CDf =  0.00890    CDp =  0.01857

 Side 1  free  transition at x/c =  0.5173  119
 Side 2 forced transition at x/c =  1.0000  131

   4   rms: 0.3988E-03   max: -.1988E-02   C at  131  2
       a =  6.500      CL =  0.9364
      Cm = -0.0497     CD =  0.02747   =>   CDf =  0.00889    CDp =  0.01858

 Side 1  free  transition at x/c =  0.5174  119
 Side 2 forced transition at x/c =  1.0000  131

   5   rms: 0.2897E-04   max: -.1475E-03   C at  131  2
       a =  6.500      CL =  0.9363
      Cm = -0.0497     CD =  0.02747   =>   CDf =  0.00889    CDp =  0.01858
 plradd ia,ip,cpol           26         170  1.86398905E-02

 Point added to stored polar  1
 Save file unspecified or not available
 Dump file unspecified or not available

.OPERva   c>  
.OPERva   c>  
.OPERva   c>   Calculating wake trajectory ...
 Array size (IWX) too small.  Last wake point index reduced.
 Calculating source influence matrix ...

 Solving BL system ...

 Side 1  free  transition at x/c =  0.5174  119
 Side 2 forced transition at x/c =  1.0000  131

   1   rms: 0.6467E-01   max: 0.2879E+00   T at  119  1
       a =  6.750      CL =  0.9803
      Cm = -0.0506     CD =  0.02654   =>   CDf =  0.00880    CDp =  0.01775

 Side 1  free  transition at x/c =  0.5061  118
 Side 2 forced transition at x/c =  1.0000  130

   2   rms: 0.3984E-01   max: 0.2767E+00   D at  122  1
       a =  6.750      CL =  0.9474
      Cm = -0.0470     CD =  0.02846   =>   CDf =  0.00878    CDp =  0.01968

 Side 1  free  transition at x/c =  0.4994  118
 Side 2 forced transition at x/c =  1.0000  130

   3   rms: 0.1019E-01   max: -.6924E-01   D at  123  1
       a =  6.750      CL =  0.9539
      Cm = -0.0476     CD =  0.02791   =>   CDf =  0.00889    CDp =  0.01902

 Side 1  free  transition at x/c =  0.5009  118
 Side 2 forced transition at x/c =  1.0000  130

   4   rms: 0.9882E-03   max: -.3930E-02   D at  121  1
       a =  6.750      CL =  0.9549
      Cm = -0.0478     CD =  0.02790   =>   CDf =  0.00885    CDp =  0.01905

 Side 1  free  transition at x/c =  0.5008  118
 Side 2 forced transition at x/c =  1.0000  130

   5   rms: 0.7199E-04   max: 0.3607E-03   C at  130  2
       a =  6.750      CL =  0.9550
      Cm = -0.0478     CD =  0.02790   =>   CDf =  0.00885    CDp =  0.01905
 plradd ia,ip,cpol           27         171  1.71199031E-02

 Point added to stored polar  1
 Save file unspecified or not available
 Dump file unspecified or not available

.OPERva   c>  
.OPERva   c>  
.OPERva   c>   Calculating wake trajectory ...
 Array size (IWX) too small.  Last wake point index reduced.
 Calculating source influence matrix ...

 Solving BL system ...

 Side 1  free  transition at x/c =  0.5008  118
 Side 2 forced transition at x/c =  1.0000  130

   1   rms: 0.4937E-01   max: 0.3025E+00   T at  118  1
       a =  7.000      CL =  0.9863
      Cm = -0.0473     CD =  0.02755   =>   CDf =  0.00875    CDp =  0.01880

 Side 1  free  transition at x/c =  0.4870  117
 Side 2 forced transition at x/c =  1.0000  129
 idif Ue xi dudx           1  5.69070056E-02  1.75046921E-03   32.509571    
 Uenew xinew           2  6.24721404E-03  1.92165375E-04

   2   rms: 0.1452E-01   max: -.1551E+00   T at    2  1
       a =  7.000      CL =  0.9747
      Cm = -0.0460     CD =  0.02832   =>   CDf =  0.00896    CDp =  0.01936

 Side 1  free  transition at x/c =  0.4842  116
 Side 2 forced transition at x/c =  1.0000  130

   3   rms: 0.3587E-02   max: -.3433E-01   D at    3  1
       a =  7.000      CL =  0.9768
      Cm = -0.0463     CD =  0.02817   =>   CDf =  0.00887    CDp =  0.01930

 Side 1  free  transition at x/c =  0.4846  116
 Side 2 forced transition at x/c =  1.0000  130

   4   rms: 0.1144E-02   max: 0.1978E-01   D at    4  2
       a =  7.000      CL =  0.9771
      Cm = -0.0463     CD =  0.02817   =>   CDf =  0.00887    CDp =  0.01930

 Side 1  free  transition at x/c =  0.4846  116
 Side 2 forced transition at x/c =  1.0000  130

   5   rms: 0.1693E-04   max: -.9465E-04   D at    3  2
       a =  7.000      CL =  0.9772
      Cm = -0.0463     CD =  0.02817   =>   CDf =  0.00887    CDp =  0.01930
 plradd ia,ip,cpol           28         171  1.56774074E-02

 Point added to stored polar  1
 Save file unspecified or not available
 Dump file unspecified or not available

.OPERva   c>  
.OPERva   c>  
.OPERva   c>   Calculating wake trajectory ...
 Array size (IWX) too small.  Last wake point index reduced.
 Calculating source influence matrix ...

 Solving BL system ...

 Side 1  free  transition at x/c =  0.4846  116
 Side 2 forced transition at x/c =  1.0000  130

   1   rms: 0.3689E-01   max: 0.3463E+00   T at  116  1
       a =  7.250      CL =  0.9906
      Cm = -0.0438     CD =  0.02887   =>   CDf =  0.00877    CDp =  0.02010

 Side 1  free  transition at x/c =  0.4674  115
 Side 2 forced transition at x/c =  1.0000  129

   2   rms: 0.2339E-01   max: -.2280E+00   D at  116  1
       a =  7.250      CL =  1.0011
      Cm = -0.0450     CD =  0.02821   =>   CDf =  0.00891    CDp =  0.01929

 Side 1  free  transition at x/c =  0.4688  115
 Side 2 forced transition at x/c =  1.0000  129

   3   rms: 0.2328E-02   max: 0.1276E-01   D at  173  1
       a =  7.250      CL =  1.0026
      Cm = -0.0452     CD =  0.02830   =>   CDf =  0.00896    CDp =  0.01934

 Side 1  free  transition at x/c =  0.4682  115
 Side 2 forced transition at x/c =  1.0000  129

   4   rms: 0.1470E-03   max: -.8723E-03   T at  115  1
       a =  7.250      CL =  1.0025
      Cm = -0.0452     CD =  0.02828   =>   CDf =  0.00893    CDp =  0.01935

 Side 1  free  transition at x/c =  0.4683  115
 Side 2 forced transition at x/c =  1.0000  129

   5   rms: 0.1096E-04   max: 0.5303E-04   T at  115  1
       a =  7.250      CL =  1.0026
      Cm = -0.0452     CD =  0.02828   =>   CDf =  0.00894    CDp =  0.01935
 plradd ia,ip,cpol           29         172  1.43091148E-02

 Point added to stored polar  1
 Save file unspecified or not available
 Dump file unspecified or not available

.OPERva   c>  
.OPERva   c>  
.OPERva   c>   Calculating wake trajectory ...
 Array size (IWX) too small.  Last wake point index reduced.
 Calculating source influence matrix ...

 Solving BL system ...

 Side 1  free  transition at x/c =  0.4683  115
 Side 2 forced transition at x/c =  1.0000  129

   1   rms: 0.5749E-01   max: 0.4450E+00   T at  115  1
       a =  7.500      CL =  0.9901
      Cm = -0.0398     CD =  0.03045   =>   CDf =  0.00894    CDp =  0.02150

 Side 1  free  transition at x/c =  0.4474  113
 Side 2 forced transition at x/c =  1.0000  129

   2   rms: 0.6081E-01   max: -.3290E+00   D at  120  1
       a =  7.500      CL =  1.0254
      Cm = -0.0436     CD =  0.02813   =>   CDf =  0.00879    CDp =  0.01934

 Side 1  free  transition at x/c =  0.4537  115
 Side 2 forced transition at x/c =  1.0000  128

   3   rms: 0.1357E-01   max: 0.1192E+00   D at  119  1
       a =  7.500      CL =  1.0261
      Cm = -0.0440     CD =  0.02854   =>   CDf =  0.00893    CDp =  0.01961

 Side 1  free  transition at x/c =  0.4508  115
 Side 2 forced transition at x/c =  1.0000  128

   4   rms: 0.1916E-02   max: 0.1352E-01   D at    3  1
       a =  7.500      CL =  1.0241
      Cm = -0.0437     CD =  0.02855   =>   CDf =  0.00896    CDp =  0.01959

 Side 1  free  transition at x/c =  0.4510  115
 Side 2 forced transition at x/c =  1.0000  128

   5   rms: 0.7058E-04   max: -.3336E-03   C at  128  2
       a =  7.500      CL =  1.0240
      Cm = -0.0437     CD =  0.02855   =>   CDf =  0.00895    CDp =  0.01960
 plradd ia,ip,cpol           30         173  1.43091148E-02

 Point added to stored polar  1
 Save file unspecified or not available
 Dump file unspecified or not available

.OPERva   c>  
.OPERva   c>  
.OPERva   c>   Calculating wake trajectory ...
 Array size (IWX) too small.  Last wake point index reduced.
 Calculating source influence matrix ...

 Solving BL system ...

 Side 1  free  transition at x/c =  0.4510  115
 Side 2 forced transition at x/c =  1.0000  128

   1   rms: 0.6316E-01   max: 0.3301E+00   T at  115  1
       a =  7.750      CL =  1.0641
      Cm = -0.0442     CD =  0.02778   =>   CDf =  0.00885    CDp =  0.01893

 Side 1  free  transition at x/c =  0.4374  114
 Side 2 forced transition at x/c =  1.0000  127
 idif Ue xi dudx           1  6.04872108E-02  2.08008289E-03   29.079231    
 Uenew xinew           2  1.26354452E-02  4.34517860E-04

   2   rms: 0.2878E-01   max: 0.2210E+00   D at  117  1
[...]
 Array size (IWX) too small.  Last wake point index reduced.
 Calculating source influence matrix ...

 Solving BL system ...

 Side 1  free  transition at x/c =  0.1677   88
 Side 2 forced transition at x/c =  1.0000  122

   1   rms: 0.7060E-01   max: 0.6735E+00   T at   88  1   RLX: 0.297
       a = 18.750      CL =  0.8532
      Cm = -0.0734     CD =  0.22055   =>   CDf =  0.00700    CDp =  0.21354

 Side 1  free  transition at x/c =  0.1656   88
 Side 2 forced transition at x/c =  1.0000  122

   2   rms: 0.1707E-01   max: 0.4082E+00   T at   88  1
       a = 18.750      CL =  0.8553
      Cm = -0.0750     CD =  0.22099   =>   CDf =  0.00702    CDp =  0.21397

 Side 1  free  transition at x/c =  0.1617   88
 Side 2 forced transition at x/c =  1.0000  122

   3   rms: 0.2298E-01   max: -.1229E+00   T at   88  1
       a = 18.750      CL =  0.8504
      Cm = -0.0744     CD =  0.21226   =>   CDf =  0.00702    CDp =  0.20524

 Side 1  free  transition at x/c =  0.1628   88
 Side 2 forced transition at x/c =  1.0000  122

   4   rms: 0.1560E-01   max: -.6738E-01   D at  156  2
       a = 18.750      CL =  0.8582
      Cm = -0.0743     CD =  0.21388   =>   CDf =  0.00703    CDp =  0.20685

 Side 1  free  transition at x/c =  0.1627   88
 Side 2 forced transition at x/c =  1.0000  122

   5   rms: 0.3932E-02   max: -.3504E-01   D at  156  2
       a = 18.750      CL =  0.8599
      Cm = -0.0743     CD =  0.21917   =>   CDf =  0.00701    CDp =  0.21215

 Side 1  free  transition at x/c =  0.1626   88
 Side 2 forced transition at x/c =  1.0000  122

   6   rms: 0.3564E-03   max: -.5146E-02   D at  156  2
       a = 18.750      CL =  0.8599
      Cm = -0.0743     CD =  0.22022   =>   CDf =  0.00700    CDp =  0.21322

 Side 1  free  transition at x/c =  0.1625   88
 Side 2 forced transition at x/c =  1.0000  122

   7   rms: 0.1466E-04   max: -.1288E-03   D at  157  2
       a = 18.750      CL =  0.8599
      Cm = -0.0743     CD =  0.22024   =>   CDf =  0.00700    CDp =  0.21324
 plradd ia,ip,cpol           71         179  2.41926033E-03

 Point added to stored polar  1
 Save file unspecified or not available
 Dump file unspecified or not available

.OPERva   c>  
.OPERva   c>  
.OPERva   c>   Calculating wake trajectory ...
 Array size (IWX) too small.  Last wake point index reduced.
 Calculating source influence matrix ...

 Solving BL system ...

 Side 1  free  transition at x/c =  0.1625   88
 Side 2 forced transition at x/c =  1.0000  122

   1   rms: 0.3586E-01   max: 0.5197E+00   T at   88  1   RLX: 0.298
       a = 19.000      CL =  0.8640
      Cm = -0.0744     CD =  0.22164   =>   CDf =  0.00700    CDp =  0.21464

 Side 1  free  transition at x/c =  0.1613   88
 Side 2 forced transition at x/c =  1.0000  122

   2   rms: 0.3292E-01   max: 0.3568E+00   T at   88  1
       a = 19.000      CL =  0.8782
      Cm = -0.0738     CD =  0.22322   =>   CDf =  0.00686    CDp =  0.21636

 Side 1  free  transition at x/c =  0.1599   88
 Side 2 forced transition at x/c =  1.0000  121

   3   rms: 0.2107E-01   max: 0.1115E+00   D at   89  1
       a = 19.000      CL =  0.8753
      Cm = -0.0759     CD =  0.22913   =>   CDf =  0.00696    CDp =  0.22217

 Side 1  free  transition at x/c =  0.1592   88
 Side 2 forced transition at x/c =  1.0000  121

   4   rms: 0.1034E-01   max: 0.6320E-01   D at    3  1
       a = 19.000      CL =  0.8703
      Cm = -0.0756     CD =  0.22673   =>   CDf =  0.00697    CDp =  0.21976

 Side 1  free  transition at x/c =  0.1596   88
 Side 2 forced transition at x/c =  1.0000  121

   5   rms: 0.1779E-02   max: -.1482E-01   T at   88  1
       a = 19.000      CL =  0.8704
      Cm = -0.0755     CD =  0.22361   =>   CDf =  0.00699    CDp =  0.21662

 Side 1  free  transition at x/c =  0.1597   88
 Side 2 forced transition at x/c =  1.0000  121

   6   rms: 0.4994E-03   max: 0.2158E-02   T at   88  1
       a = 19.000      CL =  0.8707
      Cm = -0.0755     CD =  0.22356   =>   CDf =  0.00699    CDp =  0.21657

 Side 1  free  transition at x/c =  0.1597   88
 Side 2 forced transition at x/c =  1.0000  121

   7   rms: 0.6993E-04   max: -.7540E-03   D at  153  2
       a = 19.000      CL =  0.8707
      Cm = -0.0755     CD =  0.22372   =>   CDf =  0.00699    CDp =  0.21673
 plradd ia,ip,cpol           72         180  2.41926033E-03

 Point added to stored polar  1
 Save file unspecified or not available
 Dump file unspecified or not available

.OPERva   c>  
.OPERva   c>  
.OPERva   c>   Calculating wake trajectory ...
 Array size (IWX) too small.  Last wake point index reduced.
 Calculating source influence matrix ...

 Solving BL system ...

 Side 1  free  transition at x/c =  0.1597   88
 Side 2 forced transition at x/c =  1.0000  121
 idif Ue xi dudx           1  3.32688242E-02  2.01535225E-03   16.507696    
 Uenew xinew           2  4.86064062E-04  2.94446945E-05

   1   rms: 0.6305E-01   max: 0.8028E+00   T at   88  1   RLX: 0.291
       a = 19.250      CL =  0.8675
      Cm = -0.0774     CD =  0.22633   =>   CDf =  0.00711    CDp =  0.21923

 Side 1  free  transition at x/c =  0.1575   87
 Side 2 forced transition at x/c =  1.0000  122

   2   rms: 0.6390E-01   max: 0.1522E+01   D at    2  2   RLX: 0.947
       a = 19.250      CL =  0.8711
      Cm = -0.0785     CD =  0.22572   =>   CDf =  0.00686    CDp =  0.21885

 Side 1  free  transition at x/c =  0.1543   88
 Side 2 forced transition at x/c =  1.0000  121

   3   rms: 0.2599E-01   max: 0.3359E+00   T at    3  2
       a = 19.250      CL =  0.8687
      Cm = -0.0779     CD =  0.21938   =>   CDf =  0.00700    CDp =  0.21239

 Side 1  free  transition at x/c =  0.1550   88
 Side 2 forced transition at x/c =  1.0000  121

   4   rms: 0.1312E-01   max: 0.1231E+00   T at    3  1
       a = 19.250      CL =  0.8744
      Cm = -0.0778     CD =  0.22130   =>   CDf =  0.00700    CDp =  0.21429

 Side 1  free  transition at x/c =  0.1548   88
 Side 2 forced transition at x/c =  1.0000  121

   5   rms: 0.2595E-02   max: -.2460E-01   D at  155  2
       a = 19.250      CL =  0.8756
      Cm = -0.0779     CD =  0.22549   =>   CDf =  0.00699    CDp =  0.21851

 Side 1  free  transition at x/c =  0.1547   88
 Side 2 forced transition at x/c =  1.0000  121

   6   rms: 0.2080E-03   max: -.3055E-02   D at  155  2
       a = 19.250      CL =  0.8756
      Cm = -0.0779     CD =  0.22610   =>   CDf =  0.00698    CDp =  0.21912

 Side 1  free  transition at x/c =  0.1547   88
 Side 2 forced transition at x/c =  1.0000  121

   7   rms: 0.7393E-05   max: -.5578E-04   D at  156  2
       a = 19.250      CL =  0.8756
      Cm = -0.0779     CD =  0.22611   =>   CDf =  0.00698    CDp =  0.21913
 plradd ia,ip,cpol           73         180  2.41926033E-03

 Point added to stored polar  1
 Save file unspecified or not available
 Dump file unspecified or not available

.OPERva   c>  
.OPERva   c>  
.OPERva   c>   Calculating wake trajectory ...
 Array size (IWX) too small.  Last wake point index reduced.
 Calculating source influence matrix ...

 Solving BL system ...

 Side 1  free  transition at x/c =  0.1547   88
 Side 2 forced transition at x/c =  1.0000  121

   1   rms: 0.3912E-01   max: 0.5283E+00   T at   88  1   RLX: 0.291
       a = 19.500      CL =  0.8797
      Cm = -0.0780     CD =  0.22741   =>   CDf =  0.00698    CDp =  0.22043

 Side 1  free  transition at x/c =  0.1536   88
 Side 2 forced transition at x/c =  1.0000  121

   2   rms: 0.3592E-01   max: 0.3701E+00   T at   88  1
       a = 19.500      CL =  0.8947
      Cm = -0.0773     CD =  0.22920   =>   CDf =  0.00697    CDp =  0.22223

 Side 1  free  transition at x/c =  0.1524   87
 Side 2 forced transition at x/c =  1.0000  121

   3   rms: 0.2971E-01   max: 0.1557E+00   D at   88  1
       a = 19.500      CL =  0.8898
      Cm = -0.0801     CD =  0.23698   =>   CDf =  0.00694    CDp =  0.23004

 Side 1  free  transition at x/c =  0.1512   87
 Side 2 forced transition at x/c =  1.0000  121

   4   rms: 0.1173E-01   max: -.8481E-01   D at   87  1
       a = 19.500      CL =  0.8833
      Cm = -0.0796     CD =  0.23285   =>   CDf =  0.00696    CDp =  0.22589

 Side 1  free  transition at x/c =  0.1520   87
 Side 2 forced transition at x/c =  1.0000  121

   5   rms: 0.2733E-02   max: -.1516E-01   T at   87  1
       a = 19.500      CL =  0.8843
      Cm = -0.0795     CD =  0.22859   =>   CDf =  0.00697    CDp =  0.22162

 Side 1  free  transition at x/c =  0.1520   87
 Side 2 forced transition at x/c =  1.0000  121

   6   rms: 0.9722E-03   max: -.5656E-02   D at  155  2
       a = 19.500      CL =  0.8848
      Cm = -0.0795     CD =  0.22914   =>   CDf =  0.00697    CDp =  0.22217

 Side 1  free  transition at x/c =  0.1520   87
 Side 2 forced transition at x/c =  1.0000  121

   7   rms: 0.1247E-03   max: -.1474E-02   D at  153  2
       a = 19.500      CL =  0.8848
      Cm = -0.0795     CD =  0.22942   =>   CDf =  0.00697    CDp =  0.22245

 Side 1  free  transition at x/c =  0.1520   87
 Side 2 forced transition at x/c =  1.0000  121

   8   rms: 0.1795E-04   max: -.8737E-04   T at   87  1
       a = 19.500      CL =  0.8848
      Cm = -0.0795     CD =  0.22942   =>   CDf =  0.00697    CDp =  0.22245
 plradd ia,ip,cpol           74         180  1.92452664E-03

 Point added to stored polar  1
 Save file unspecified or not available
 Dump file unspecified or not available

.OPERva   c>  
.OPERva   c>  
.OPERva   c>   Calculating wake trajectory ...
 Array size (IWX) too small.  Last wake point index reduced.
 Calculating source influence matrix ...

 Solving BL system ...

 Side 1  free  transition at x/c =  0.1520   87
 Side 2 forced transition at x/c =  1.0000  121

   1   rms: 0.5453E-01   max: 0.8113E+00   T at   87  1   RLX: 0.284
       a = 19.750      CL =  0.8827
      Cm = -0.0811     CD =  0.23179   =>   CDf =  0.00697    CDp =  0.22481

 Side 1  free  transition at x/c =  0.1500   87
 Side 2 forced transition at x/c =  1.0000  121

   2   rms: 0.1580E-01   max: 0.3682E+00   T at   87  1
       a = 19.750      CL =  0.8871
      Cm = -0.0823     CD =  0.23186   =>   CDf =  0.00698    CDp =  0.22488

 Side 1  free  transition at x/c =  0.1468   87
 Side 2 forced transition at x/c =  1.0000  121

   3   rms: 0.1798E-01   max: -.9172E-01   T at   87  1
       a = 19.750      CL =  0.8840
      Cm = -0.0819     CD =  0.22545   =>   CDf =  0.00697    CDp =  0.21848

 Side 1  free  transition at x/c =  0.1475   87
 Side 2 forced transition at x/c =  1.0000  121

   4   rms: 0.1188E-01   max: 0.6139E-01   C at  121  2
       a = 19.750      CL =  0.8897
      Cm = -0.0817     CD =  0.22746   =>   CDf =  0.00698    CDp =  0.22048

 Side 1  free  transition at x/c =  0.1474   87
 Side 2 forced transition at x/c =  1.0000  121

   5   rms: 0.2804E-02   max: -.2523E-01   D at  155  2
       a = 19.750      CL =  0.8909
      Cm = -0.0817     CD =  0.23118   =>   CDf =  0.00697    CDp =  0.22421

 Side 1  free  transition at x/c =  0.1473   87
 Side 2 forced transition at x/c =  1.0000  121

   6   rms: 0.2438E-03   max: -.3660E-02   D at  155  2
       a = 19.750      CL =  0.8910
      Cm = -0.0817     CD =  0.23187   =>   CDf =  0.00696    CDp =  0.22491

 Side 1  free  transition at x/c =  0.1473   87
 Side 2 forced transition at x/c =  1.0000  121

   7   rms: 0.1175E-04   max: 0.1609E-03   D at    4  2
       a = 19.750      CL =  0.8910
      Cm = -0.0817     CD =  0.23189   =>   CDf =  0.00696    CDp =  0.22493
 plradd ia,ip,cpol           75         180  1.92452664E-03

 Point added to stored polar  1
 Save file unspecified or not available
 Dump file unspecified or not available

.OPERva   c>  
.OPERva   c>  
.OPERva   c>   Calculating wake trajectory ...
 Array size (IWX) too small.  Last wake point index reduced.
 Calculating source influence matrix ...

 Solving BL system ...

 Side 1  free  transition at x/c =  0.1473   87
 Side 2 forced transition at x/c =  1.0000  121

   1   rms: 0.4240E-01   max: 0.5143E+00   T at   87  1   RLX: 0.284
       a = 20.000      CL =  0.8947
      Cm = -0.0818     CD =  0.23321   =>   CDf =  0.00682    CDp =  0.22639

 Side 1  free  transition at x/c =  0.1463   88
 Side 2 forced transition at x/c =  1.0000  120

   2   rms: 0.3779E-01   max: 0.3742E+00   T at   88  1
       a = 20.000      CL =  0.9091
      Cm = -0.0812     CD =  0.23494   =>   CDf =  0.00695    CDp =  0.22799

 Side 1  free  transition at x/c =  0.1451   87
 Side 2 forced transition at x/c =  1.0000  120

   3   rms: 0.2806E-01   max: 0.1512E+00   D at   88  1
       a = 20.000      CL =  0.9051
      Cm = -0.0838     CD =  0.24283   =>   CDf =  0.00692    CDp =  0.23591

 Side 1  free  transition at x/c =  0.1440   87
 Side 2 forced transition at x/c =  1.0000  120

   4   rms: 0.1168E-01   max: -.7655E-01   D at   87  1
       a = 20.000      CL =  0.8993
      Cm = -0.0836     CD =  0.23921   =>   CDf =  0.00693    CDp =  0.23227

 Side 1  free  transition at x/c =  0.1446   87
 Side 2 forced transition at x/c =  1.0000  120

   5   rms: 0.2254E-02   max: -.1730E-01   T at   87  1
       a = 20.000      CL =  0.8997
      Cm = -0.0834     CD =  0.23465   =>   CDf =  0.00695    CDp =  0.22770

 Side 1  free  transition at x/c =  0.1447   87
 Side 2 forced transition at x/c =  1.0000  120

   6   rms: 0.7660E-03   max: -.4182E-02   D at  154  2
       a = 20.000      CL =  0.9001
      Cm = -0.0834     CD =  0.23489   =>   CDf =  0.00695    CDp =  0.22794

 Side 1  free  transition at x/c =  0.1447   87
 Side 2 forced transition at x/c =  1.0000  120

   7   rms: 0.1155E-03   max: -.1190E-02   D at  155  2
       a = 20.000      CL =  0.9001
      Cm = -0.0834     CD =  0.23516   =>   CDf =  0.00695    CDp =  0.22821

 Side 1  free  transition at x/c =  0.1447   87
 Side 2 forced transition at x/c =  1.0000  120

   8   rms: 0.1558E-04   max: 0.5766E-04   D at  128  2
       a = 20.000      CL =  0.9001
      Cm = -0.0834     CD =  0.23517   =>   CDf =  0.00695    CDp =  0.22822
 plradd ia,ip,cpol           76         181  1.92452664E-03

 Point added to stored polar  1
 Save file unspecified or not available
 Dump file unspecified or not available

.OPERva   c>  
.OPERva   c>  
.OPERva   c>  
        airfoil                    Re           Mach       Ncrit  XtripT  XtripB     file
       ------------------------  ------------  ----------  -----  ------  ------    -------------------
 >  1  NACA 2415                 7.000e4       0.000        9.00   1.000   1.000    

Enter polar output filename   s>  
.OPERva   c>  
 ==============================================================
 Polar  1
  
       XFOIL         Version 6.99
  
 Calculated polar for: NACA 2415                                       
  
 1 1 Reynolds number fixed          Mach number fixed         
  
 xtrf =   1.000 (top)        1.000 (bottom)  
 Mach =   0.000     Re =     0.070 e 6     Ncrit =   9.000
  
   alpha    CL        CD       CDp       CM     Top_Xtr  Bot_Xtr
  ------ -------- --------- --------- -------- -------- --------
   0.250   0.3524   0.02529   0.01732  -0.0788   0.8508   1.0000
   0.500   0.3845   0.02488   0.01684  -0.0798   0.8385   1.0000
   0.750   0.4020   0.02484   0.01674  -0.0784   0.8230   1.0000
   1.000   0.4297   0.02458   0.01641  -0.0782   0.8104   1.0000
   1.250   0.4535   0.02445   0.01622  -0.0774   0.7974   1.0000
   1.500   0.4720   0.02451   0.01622  -0.0757   0.7833   1.0000
   1.750   0.4982   0.02436   0.01602  -0.0750   0.7713   1.0000
   2.000   0.5216   0.02433   0.01593  -0.0739   0.7589   1.0000
   2.250   0.5390   0.02455   0.01611  -0.0719   0.7450   1.0000
   2.500   0.5639   0.02452   0.01603  -0.0709   0.7330   1.0000
   2.750   0.5906   0.02444   0.01590  -0.0700   0.7215   1.0000
   3.000   0.6071   0.02480   0.01624  -0.0679   0.7075   1.0000
   3.250   0.6303   0.02491   0.01632  -0.0666   0.6950   1.0000
   3.500   0.6567   0.02491   0.01627  -0.0657   0.6832   1.0000
   3.750   0.6773   0.02518   0.01652  -0.0640   0.6701   1.0000
   4.000   0.6985   0.02544   0.01676  -0.0625   0.6568   1.0000
   4.250   0.7247   0.02549   0.01678  -0.0615   0.6445   1.0000
   4.500   0.7465   0.02577   0.01704  -0.0600   0.6312   1.0000
   4.750   0.7681   0.02605   0.01731  -0.0584   0.6175   1.0000
   5.000   0.7959   0.02607   0.01729  -0.0576   0.6049   1.0000
   5.250   0.8146   0.02652   0.01775  -0.0558   0.5902   1.0000
   5.500   0.8407   0.02662   0.01782  -0.0547   0.5766   1.0000
   5.750   0.8618   0.02697   0.01817  -0.0532   0.5619   1.0000
   6.000   0.8876   0.02709   0.01826  -0.0521   0.5475   1.0000
   6.250   0.9081   0.02746   0.01864  -0.0504   0.5321   1.0000
   6.500   0.9363   0.02747   0.01858  -0.0497   0.5174   1.0000
   6.750   0.9550   0.02790   0.01905  -0.0478   0.5008   1.0000
   7.000   0.9772   0.02817   0.01930  -0.0463   0.4846   1.0000
   7.250   1.0026   0.02828   0.01935  -0.0452   0.4683   1.0000
   7.500   1.0240   0.02855   0.01960  -0.0437   0.4510   1.0000
   7.750   1.0435   0.02890   0.01994  -0.0419   0.4333   1.0000
   8.000   1.0632   0.02922   0.02025  -0.0401   0.4152   1.0000
   8.250   1.0825   0.02955   0.02055  -0.0383   0.3968   1.0000
   8.500   1.1012   0.02989   0.02085  -0.0364   0.3782   1.0000
   8.750   1.1192   0.03027   0.02117  -0.0345   0.3593   1.0000
   9.000   1.1365   0.03071   0.02155  -0.0325   0.3403   1.0000
   9.250   1.1532   0.03124   0.02198  -0.0306   0.3213   1.0000
   9.500   1.1684   0.03192   0.02257  -0.0284   0.3026   1.0000
   9.750   1.1815   0.03276   0.02335  -0.0261   0.2844   1.0000
  10.000   1.1950   0.03368   0.02419  -0.0240   0.2671   1.0000
  10.250   1.2082   0.03470   0.02513  -0.0219   0.2507   1.0000
  10.500   1.2176   0.03593   0.02639  -0.0194   0.2357   1.0000
  10.750   1.2298   0.03719   0.02761  -0.0173   0.2219   1.0000
  11.000   1.2451   0.03843   0.02875  -0.0158   0.2090   1.0000
  11.250   1.2553   0.03993   0.03029  -0.0136   0.1977   1.0000
  11.500   1.2654   0.04149   0.03190  -0.0116   0.1876   1.0000
  11.750   1.2781   0.04306   0.03347  -0.0099   0.1782   1.0000
  12.000   1.2905   0.04472   0.03515  -0.0083   0.1698   1.0000
  12.250   1.2981   0.04653   0.03705  -0.0062   0.1627   1.0000
  12.500   1.3039   0.04849   0.03913  -0.0039   0.1564   1.0000
  12.750   1.3116   0.05050   0.04122  -0.0021   0.1507   1.0000
  13.000   1.3257   0.05244   0.04317  -0.0010   0.1448   1.0000
  13.250   1.3120   0.05512   0.04617   0.0026   0.1416   1.0000
  13.500   1.3201   0.05738   0.04848   0.0040   0.1371   1.0000
  13.750   1.3002   0.06066   0.05209   0.0070   0.1350   1.0000
  14.000   1.3139   0.06284   0.05427   0.0078   0.1307   1.0000
  14.250   1.2826   0.06709   0.05888   0.0103   0.1299   1.0000
  14.500   1.2487   0.07216   0.06428   0.0116   0.1294   1.0000
  14.750   1.2084   0.07856   0.07099   0.0114   0.1294   1.0000
  15.000   1.1576   0.08713   0.07985   0.0092   0.1303   1.0000
  16.000   0.7827   0.18708   0.17997  -0.0556   0.2152   1.0000
  16.250   0.7925   0.19014   0.18306  -0.0567   0.2090   1.0000
  16.500   0.7922   0.19306   0.18596  -0.0592   0.2040   1.0000
  16.750   0.8103   0.19698   0.18991  -0.0593   0.1996   1.0000
  17.000   0.8090   0.19925   0.19218  -0.0620   0.1937   1.0000
  17.250   0.8151   0.20248   0.19541  -0.0638   0.1898   1.0000
  17.500   0.8283   0.20571   0.19868  -0.0645   0.1844   1.0000
  17.750   0.8283   0.20836   0.20131  -0.0674   0.1800   1.0000
  18.250   0.8438   0.21431   0.20728  -0.0708   0.1709   1.0000
  18.500   0.8583   0.21808   0.21108  -0.0714   0.1677   1.0000
  18.750   0.8599   0.22024   0.21324  -0.0743   0.1625   1.0000
  19.000   0.8707   0.22372   0.21673  -0.0755   0.1597   1.0000
  19.250   0.8756   0.22611   0.21913  -0.0779   0.1547   1.0000
  19.500   0.8848   0.22942   0.22245  -0.0795   0.1520   1.0000
  19.750   0.8910   0.23189   0.22493  -0.0817   0.1473   1.0000
  20.000   0.9001   0.23517   0.22822  -0.0834   0.1447   1.0000

.OPERva   c>  
 XFOIL   c>  